$DATA1 SOURCE='HSPICE' VERSION='C-2009.09 32-BIT'
.TITLE 'dynamic'
 p_avg            temper           alter#            
  4.182e-07         25.0000           3.0000         
