$DATA1 SOURCE='HSPICE' VERSION='C-2009.09 32-BIT'
.TITLE 'static'
 p_avg            temper           alter#            
  3.572e-10         25.0000           2.0000         
