$DATA1 SOURCE='HSPICE' VERSION='C-2009.09 32-BIT'
.TITLE 'ss_dynamic'
 p_avg            temper           alter#            
  1.911e-06        100.0000           3.0000         
