 ****** HSPICE -- C-2009.09 32-BIT (Aug 24 2009) winnt ******                   
  Copyright (C) 2009 Synopsys, Inc. All Rights Reserved.                        
  Unpublished-rights reserved under US copyright laws.
  This program is protected by law and is subject to the 
  terms and conditions of the license agreement from Synopsys.
  Use of this program is your acceptance to be bound by the 
  license agreement. HSPICE is the trademark of Synopsys, Inc.
  Input File: d:\vlsi_homework\final\inv_test\inv_test.sp                       
  lic:  
  lic: FLEXlm: v8.5b 
  lic: USER:    ZZJ                 HOSTNAME: LAPTOP-CH7L8TQ9 
  lic: HOSTID: "f430b9ae4e60 00ff66c6b359 5413792f7072 005056c00001 005056c00008
  
  lic: Using FLEXlm license file: 
  lic: 27000@localhost 
  lic: Checkout 1 hspice 
  lic: License/Maintenance for hspice will expire on 31-dec-2028/2008.120 
  lic: FLOATING license(s) on SERVER localhost 
  lic:   
 Init: read install configuration file: F:\synopsys\Hspice_C-2009.09\meta.cfg
  **warning** (F:\synopsys\library_40\l0040ll_v1p4_1r.mdl:6)  associated with encrypted blocks were suppressed due to encrypted content
1****** HSPICE -- C-2009.09 32-BIT (Aug 24 2009) winnt ******                   
 ******  
 inv_test

  ******  circuit name directory
 circuit number to circuit name directory
   number circuitname                     definition         multiplier
        0 main circuit
        1 x_inv1.                         inv_test           1.00 
        2 x_inv2.                         inv_test           1.00 
        3 xinv.                           inv                1.00 
  **warning** (d:\vlsi_homework\final\inv_test\inv_test.sp:34) dc voltage reset to initial transient source value              in source        0:vin                 new dc=  0.0000D+00
 
      
 **diagnostic** set option symb=1 internally to help for convergence.
 *****************************************************************
 ******  option summary
 ******
 runlvl  = 6         bypass  = 2         
  Opening plot unit= 79
 file=d:\vlsi_homework\final\inv_test\inv_test.pa0                             

1****** HSPICE -- C-2009.09 32-BIT (Aug 24 2009) winnt ******                   
 ******  
 inv_test

  ******  operating point information tnom=  25.000 temp= 100.000 *****
 ***** operating point status is voltage   simulation time is     0.     
    node    =voltage      node    =voltage      node    =voltage

 +0:1       =   1.1000  0:in      =   0.      0:out     =   1.1000 
 +0:test_in =   4.6119u 0:vdd     =   1.1000  0:vnw     =   1.1000 
 +0:vpw     =   0.      0:vss     =   0.     

 ******  
 inv_test

  ******  transient analysis tnom=  25.000 temp= -10.000 *****
   riset=  2.2761E-10  targ=  4.4310E-09   trig=  4.2034E-09
   fallt=  2.2271E-10  targ=  3.2692E-10   trig=  1.0421E-10

          ***** job concluded
 ******  
 inv_test

  ******  transient analysis tnom=  25.000 temp=   0.000 *****
   riset=  2.2830E-10  targ=  4.4311E-09   trig=  4.2028E-09
   fallt=  2.2423E-10  targ=  3.2837E-10   trig=  1.0414E-10

          ***** job concluded
 ******  
 inv_test

  ******  transient analysis tnom=  25.000 temp=  10.000 *****
   riset=  2.2896E-10  targ=  4.4313E-09   trig=  4.2023E-09
   fallt=  2.2603E-10  targ=  3.3009E-10   trig=  1.0407E-10

          ***** job concluded
 ******  
 inv_test

  ******  transient analysis tnom=  25.000 temp=  20.000 *****
   riset=  2.3053E-10  targ=  4.4324E-09   trig=  4.2019E-09
   fallt=  2.2753E-10  targ=  3.3152E-10   trig=  1.0399E-10

          ***** job concluded
 ******  
 inv_test

  ******  transient analysis tnom=  25.000 temp=  30.000 *****
   riset=  2.2974E-10  targ=  4.4312E-09   trig=  4.2015E-09
   fallt=  2.2877E-10  targ=  3.3269E-10   trig=  1.0392E-10

          ***** job concluded
 ******  
 inv_test

  ******  transient analysis tnom=  25.000 temp=  40.000 *****
   riset=  2.3073E-10  targ=  4.4318E-09   trig=  4.2011E-09
   fallt=  2.2979E-10  targ=  3.3365E-10   trig=  1.0386E-10

          ***** job concluded
 ******  
 inv_test

  ******  transient analysis tnom=  25.000 temp=  50.000 *****
   riset=  2.3170E-10  targ=  4.4324E-09   trig=  4.2007E-09
   fallt=  2.3090E-10  targ=  3.3470E-10   trig=  1.0380E-10

          ***** job concluded
 ******  
 inv_test

  ******  transient analysis tnom=  25.000 temp=  60.000 *****
   riset=  2.3318E-10  targ=  4.4336E-09   trig=  4.2004E-09
   fallt=  2.3247E-10  targ=  3.3622E-10   trig=  1.0375E-10

          ***** job concluded
 ******  
 inv_test

  ******  transient analysis tnom=  25.000 temp=  70.000 *****
   riset=  2.3280E-10  targ=  4.4329E-09   trig=  4.2001E-09
   fallt=  2.3367E-10  targ=  3.3737E-10   trig=  1.0370E-10

          ***** job concluded
 ******  
 inv_test

  ******  transient analysis tnom=  25.000 temp=  80.000 *****
   riset=  2.3469E-10  targ=  4.4345E-09   trig=  4.1999E-09
   fallt=  2.3465E-10  targ=  3.3830E-10   trig=  1.0366E-10

          ***** job concluded
 ******  
 inv_test

  ******  transient analysis tnom=  25.000 temp=  90.000 *****
   riset=  2.3596E-10  targ=  4.4356E-09   trig=  4.1996E-09
   fallt=  2.3580E-10  targ=  3.3942E-10   trig=  1.0362E-10

          ***** job concluded
 ******  
 inv_test

  ******  transient analysis tnom=  25.000 temp= 100.000 *****
   riset=  2.3685E-10  targ=  4.4363E-09   trig=  4.1995E-09
   fallt=  2.3679E-10  targ=  3.4038E-10   trig=  1.0359E-10

   meas_variable = riset
   mean  = 231.7533p  varian = 8.982e-24
   sigma =   2.9971p  avgdev =   2.4500p
   max   = 236.8451p  min    = 227.6097p
    1-sigma =   2.9971p median = 231.2163p

   meas_variable = fallt
   mean  = 230.2778p  varian = 2.097e-23
   sigma =   4.5791p  avgdev =   3.7681p
   max   = 236.7883p  min    = 222.7128p
    1-sigma =   4.5791p median = 230.3455p
 

          ***** job concluded
1****** HSPICE -- C-2009.09 32-BIT (Aug 24 2009) winnt ******                   
 ******  
 inv_test

  ******  job statistics summary tnom=  25.000 temp= 100.000 *****

  ******  HSPICE Threads Information  ******

  Command Line Threads Count                  :     1
  Available CPU Count                         :     4
  Actual Model Evaluation(Load) Threads Count :     1
  Actual Solver Threads Count                 :     1


  ******  Circuit Statistics  ******
  # nodes       =      21 # elements   =      12
  # resistors   =       0 # capacitors =       1 # inductors   =       0
  # mutual_inds =       0 # vccs       =       0 # vcvs        =       0
  # cccs        =       0 # ccvs       =       0 # volt_srcs   =       5
  # curr_srcs   =       0 # diodes     =       0 # bjts        =       0
  # jfets       =       0 # mosfets    =       6 # U elements  =       0
  # T elements  =       0 # W elements =       0 # B elements  =       0
  # S elements  =       0 # P elements =       0 # va device   =       0


  ******  Runtime Statistics (seconds)  ******

  analysis           time    # points   tot. iter  conv.iter
  op point           0.08           1          52
  transient          0.92      240012       13503        5026 rev=       754
  readin             0.08
  errchk             0.02
  setup              0.02
  output             0.00


           total memory used          461  kbytes
           total cpu time            1.38 seconds
           total elapsed time        1.48 seconds
           job started at     22:06:07 05/23/2020
           job ended   at     22:06:09 05/23/2020


  lic: Release hspice token(s) 
