$DATA1 SOURCE='HSPICE' VERSION='C-2009.09 32-BIT'
.TITLE 'inv_test'
 temper           riset            fallt            alter#            
  -10.0000         2.276e-10        2.228e-10          1.0000         
    0.             2.282e-10        2.243e-10          1.0000         
   10.0000         2.289e-10        2.257e-10          1.0000         
   20.0000         2.294e-10        2.269e-10          1.0000         
   30.0000         2.305e-10        2.283e-10          1.0000         
   40.0000         2.318e-10        2.298e-10          1.0000         
   50.0000         2.322e-10        2.311e-10          1.0000         
   60.0000         2.336e-10        2.317e-10          1.0000         
   70.0000         2.336e-10        2.332e-10          1.0000         
   80.0000         2.341e-10        2.345e-10          1.0000         
   90.0000         2.361e-10        2.358e-10          1.0000         
  100.0000         2.371e-10        2.370e-10          1.0000         
