$DATA1 SOURCE='HSPICE' VERSION='C-2009.09 32-BIT'
.TITLE 'tt'
 p_avg            temper           alter#            
  1.935e-06        100.0000           5.0000         
