***** HSPICE -- C-2009.09 32-BIT (Aug 24 2009) winnt ******
 Input File: d:\vlsi_homework\final\inv_test\inv_test.sp
 lic:
 lic: FLEXlm: v8.5b
 lic: USER:    ZZJ                 HOSTNAME: LAPTOP-CH7L8TQ9
 lic: HOSTID: "f430b9ae4e60 00ff66c6b359 5413792f7072 005056c00001 005056c00008
 lic: Using FLEXlm license file:
 lic: 27000@localhost
 lic: Checkout 1 hspice
 lic: License/Maintenance for hspice will expire on 31-dec-2028/2008.120
 lic: FLOATING license(s) on SERVER localhost
 lic:
 init: begin read circuit files,  cpu clock=  9.30E-02
       option search   = F:\synopsys\Hspice_C-2009.09\PARTS\behave\
       option search   = F:\synopsys\Hspice_C-2009.09\PARTS\AD\
       option search   = F:\synopsys\Hspice_C-2009.09\PARTS\XILINX\
       option search   = F:\synopsys\Hspice_C-2009.09\PARTS\TLINE\
       option search   = F:\synopsys\Hspice_C-2009.09\PARTS\TI\
       option search   = F:\synopsys\Hspice_C-2009.09\PARTS\SIGNET\
       option search   = F:\synopsys\Hspice_C-2009.09\PARTS\PCI\
       option search   = F:\synopsys\Hspice_C-2009.09\PARTS\LIN_TECH\
       option search   = F:\synopsys\Hspice_C-2009.09\PARTS\FET\
       option search   = F:\synopsys\Hspice_C-2009.09\PARTS\DIO\
       option search   = F:\synopsys\Hspice_C-2009.09\PARTS\COMLINE\
       option search   = F:\synopsys\Hspice_C-2009.09\PARTS\BURR_BRN\
       option search   = F:\synopsys\Hspice_C-2009.09\PARTS\BJT\
       option search   = F:\synopsys\Hspice_C-2009.09\PARTS\behave\
       option search   = F:\synopsys\Hspice_C-2009.09\PARTS\AD\
       option post
       option runlvl   =     6.00
       option gmindc   =    1.000E-14
       option scale    =    0.900
       option post
       option nomod
       option search   =
 init: end read circuit files,  cpu clock=  1.64E-01 memory=    162 kb
 init: begin check errors,  cpu clock=  1.64E-01
 init: end check errors,  cpu clock=  1.77E-01 memory=    433 kb
 init: begin setup matrix, pivot=     0 cpu clock=  1.77E-01
       establish matrix -- done,  cpu clock=  1.91E-01 memory=    441 kb
       re-order matrix -- done,  cpu clock=  1.95E-01 memory=    443 kb
 init: end setup matrix,  cpu clock=  2.01E-01 memory=    457 kb
 dcop: begin dcop,  cpu clock=  2.05E-01
 dcop: end dcop,  cpu clock=  2.17E-01 memory=    457 kb  tot_iter=       4
 output: d:\vlsi_homework\final\inv_test\inv_test.mt0
 sweep: tran tran0    begin, stop_t=  4.00E-08 #sweeps=**** cpu clock=  2.28E-01
 tran: time= 4.4287E-09 tot_iter=     236 conv_iter=      89 cpu clock= 2.37E-01
 tran: time= 8.7238E-09 tot_iter=     455 conv_iter=     169 cpu clock= 2.48E-01
 tran: time= 1.2444E-08 tot_iter=     665 conv_iter=     246 cpu clock= 2.57E-01
 tran: time= 1.6724E-08 tot_iter=     884 conv_iter=     326 cpu clock= 2.66E-01
 tran: time= 2.0444E-08 tot_iter=    1094 conv_iter=     403 cpu clock= 2.75E-01
 tran: time= 2.4724E-08 tot_iter=    1313 conv_iter=     483 cpu clock= 2.84E-01
 tran: time= 2.8444E-08 tot_iter=    1523 conv_iter=     560 cpu clock= 2.95E-01
 tran: time= 3.2724E-08 tot_iter=    1742 conv_iter=     640 cpu clock= 3.04E-01
 tran: time= 3.6444E-08 tot_iter=    1952 conv_iter=     717 cpu clock= 3.13E-01
 tran: time= 4.0000E-08 tot_iter=    2171 conv_iter=     797 cpu clock= 3.23E-01
 sweep: tran tran0    end,  cpu clock=  3.27E-01 memory=    458 kb
>info:         ***** hspice job concluded
 lic: Release hspice token(s)
