$DATA1 SOURCE='HSPICE' VERSION='C-2009.09 32-BIT'
.TITLE 'inv_test'
 temper           riset            fallt            alter#            
  -10.0000         2.276e-10        2.227e-10          1.0000         
    0.             2.283e-10        2.242e-10          1.0000         
   10.0000         2.290e-10        2.260e-10          1.0000         
   20.0000         2.305e-10        2.275e-10          1.0000         
   30.0000         2.297e-10        2.288e-10          1.0000         
   40.0000         2.307e-10        2.298e-10          1.0000         
   50.0000         2.317e-10        2.309e-10          1.0000         
   60.0000         2.332e-10        2.325e-10          1.0000         
   70.0000         2.328e-10        2.337e-10          1.0000         
   80.0000         2.347e-10        2.346e-10          1.0000         
   90.0000         2.360e-10        2.358e-10          1.0000         
  100.0000         2.368e-10        2.368e-10          1.0000         
