$DATA1 SOURCE='HSPICE' VERSION='C-2009.09 32-BIT'
.TITLE 'inv_test'
 riset            fallt            temper           alter#            
  2.368e-10        2.370e-10        100.0000           1.0000         
