$DATA1 SOURCE='HSPICE' VERSION='C-2009.09 32-BIT'
.TITLE 'ff'
 p_avg            temper           alter#            
  2.020e-06        100.0000           4.0000         
