 ****** HSPICE -- C-2009.09 32-BIT (Aug 24 2009) winnt ******                   
  Copyright (C) 2009 Synopsys, Inc. All Rights Reserved.                        
  Unpublished-rights reserved under US copyright laws.
  This program is protected by law and is subject to the 
  terms and conditions of the license agreement from Synopsys.
  Use of this program is your acceptance to be bound by the 
  license agreement. HSPICE is the trademark of Synopsys, Inc.
  Input File: d:\vlsi_homework\final\24t dff\24t_dff.sp                         
  lic:  
  lic: FLEXlm: v8.5b 
  lic: USER:    ZZJ                 HOSTNAME: LAPTOP-CH7L8TQ9 
  lic: HOSTID: "f430b9ae4e60 00ff66c6b359 5413792f7072 005056c00001 005056c00008
  
  lic: Using FLEXlm license file: 
  lic: 27000@localhost 
  lic: Checkout 1 hspice 
  lic: License/Maintenance for hspice will expire on 31-dec-2028/2008.120 
  lic: FLOATING license(s) on SERVER localhost 
  lic:   
 Init: read install configuration file: F:\synopsys\Hspice_C-2009.09\meta.cfg
  **warning** (F:\synopsys\library_40\l0040ll_v1p4_1r.mdl:6)  model n11ll_ckt device geometries will not be checked against the limits set by lmin, lmax, wmin and wmax. To enable this check, add a period(.) to the model name(i.e. enable model selector).
  **warning** (F:\synopsys\library_40\l0040ll_v1p4_1r.mdl:155)  model p11ll_ckt device geometries will not be checked against the limits set by lmin, lmax, wmin and wmax. To enable this check, add a period(.) to the model name(i.e. enable model selector).
  **warning** (F:\synopsys\library_40\l0040ll_v1p4_1r.mdl:6)  model n11ll_ckt device geometries will not be checked against the limits set by lmin, lmax, wmin and wmax. To enable this check, add a period(.) to the model name(i.e. enable model selector).
  **warning** (F:\synopsys\library_40\l0040ll_v1p4_1r.mdl:155)  model p11ll_ckt device geometries will not be checked against the limits set by lmin, lmax, wmin and wmax. To enable this check, add a period(.) to the model name(i.e. enable model selector).
  **warning** (d:\vlsi_homework\final\24t dff\24t_dff.sp:46) syntax error while using .print/.probe, missing output variable.
  Syntax:
  .print/.probe  <analysis type (optional)>  <output variable/expression/parameter of current/voltage/element template>
1****** HSPICE -- C-2009.09 32-BIT (Aug 24 2009) winnt ******                   
 ******  
 24t-dff

  ******  circuit name directory
 circuit number to circuit name directory
   number circuitname                     definition         multiplier
        0 main circuit
        1 xclk1.                          inv                1.00 
        2 xclk2.                          inv                1.00 
        3 xtra1.                          tg                 1.00 
        4 xclk1.xp1.                      p11ll_ckt          1.00 
        5 xclk1.xn1.                      n11ll_ckt          1.00 
        6 xclk2.xp1.                      p11ll_ckt          1.00 
        7 xclk2.xn1.                      n11ll_ckt          1.00 
        8 xtra1.xp2.                      p11ll_ckt          1.00 
        9 xtra1.xn2.                      n11ll_ckt          1.00 
1****** HSPICE -- C-2009.09 32-BIT (Aug 24 2009) winnt ******                   
 ******  
 24t-dff

  ******  mos   model parameters tnom=  25.000 temp=  25.000 *****
 
Model Name: p11ll_ckt  

 BSIM4 Model (Level 54)

    MOBMOD = 0
    BINUNIT = 2
    PARAMCHK = 1
    CAPMOD = 2
    DIOMOD = 2
    RDSMOD = 1
    TRNQSMOD = 0
    ACNQSMOD = 0
    RBODYMOD = 0
    RGATEMOD = 0
    PERMOD = 1
    GEOMOD = 0
    RGEOMOD = 1
    FNOIMOD = 1
    TNOIMOD = 0
    IGCMOD = 2
    IGBMOD = 1
    STIMOD = 1
    VBFWDMOD = 0
    VERSION =    4.5 
    TOXREF = 2.7e-009 
    TOXE = 2.7e-009 
    TOXP = 2.49e-009 
    TOXM = 2.7e-009 
    DTOX = 2.1e-010 
    EPSROX =    3.9 
    CDSC = 0.00024 
    CDSCB =      0 
    CDSCD =      0 
    CIT = 1e-007 
    NFACTOR =      1 
    XJ = 8.6e-008 
    VSAT = 1.469e+005 
    A0 =    2.3 
    AGS = 0.3226 
    A1 =      0 
    A2 =      1 
    AT = 3.3e+004 
    KETA = -0.002 
    NSUB = 6e+016 
    NDEP = 1e+017 
    NSD = 1e+020 
    NGATE = 8e+020 
    GAMMA1 =      0 
    GAMMA2 =      0 
    VBX =      0 
    VBM =     -3 
    XT = 1.55e-007 
    K1 = 0.2905 
    KT1 = -0.2942 
    KT1L =      0 
    KT2 = -0.0285 
    K2 = -0.03273 
    K3 =    0.5 
    K3B = 0.9348 
    LPE0 = 1.073e-008 
    LPEB = 7.08e-009 
    DVTP0 = 1.295e-006 
    DVTP1 =      0 
    W0 = 9e-006 
    DVT0 = 0.6192 
    DVT1 =    0.7 
    DVT2 = -0.002 
    DVT0W =      0 
    DVT1W = 5.3e+006 
    DVT2W = -0.032 
    DROUT =   0.56 
    DSUB =   0.56 
    VTH0 = -0.3662 
    EU =      1 
    UA = -1.8e-010 
    UA1 = 1.12e-009 
    UB = 1.052e-018 
    UB1 = -2.442e-018 
    UC = -6e-012 
    UC1 = -5.6e-011 
    U0 = 0.008964 
    UTE =   -1.5 
    VOFF = -0.128 
    VOFFL =      0 
    MINV =  -0.28 
    FPROUT = 0.0001 
    PDITS = 0.4745 
    PDITSD =    0.9 
    PDITSL = 1e+005 
    DELTA =   0.01 
    RDSW =    200 
    RDSWMIN =      0 
    RDWMIN =      0 
    RSWMIN =      0 
    RDW =   70.8 
    RSW =   70.8 
    PRWG =      0 
    PRWB =      0 
    PRT =      0 
    ETA0 = 0.08006 
    ETAB = -0.0103 
    PCLM =    0.3 
    PDIBLC1 = 7.28e-008 
    PDIBLC2 = 0.0035 
    PDIBLCB =      0 
    PSCBE1 = 4.24e+008 
    PSCBE2 = 1e-005 
    PVAG =      1 
    WR =      1 
    DWG =      0 
    DWB =      0 
    XW = 1.8e-008 
    XWREF = 1.8e-008 
    XL = 5.1e-009 
    XLREF = 5.1e-009 
    B0 =      0 
    B1 =      0 
    ALPHA0 = 5.791e-007 
    ALPHA1 =  2.087 
    AGIDL = 1e-010 
    BGIDL = 1.425e+009 
    CGIDL =      1 
    PHIN =   0.06 
    EGIDL =   0.22 
    AIGC = 0.007371 
    BIGC = 0.00078 
    CIGC = 0.0003 
    AIGSD = 0.00605 
    BIGSD = 0.0002164 
    CIGSD = 0.0048 
    AIGBACC = 0.01236 
    BIGBACC = 0.006079 
    CIGBACC =  0.063 
    AIGBINV =   0.35 
    BIGBINV =   0.03 
    CIGBINV =  0.006 
    NIGC =    1.5 
    NIGBINV =      3 
    NIGBACC =      1 
    NTOX =      1 
    EIGBINV =      1 
    PIGCD =    2.8 
    POXEDGE =      1 
    XRCRG1 =     12 
    TNOIA =    1.5 
    TNOIB =    3.5 
    NTNOI =      1 
    XRCRG2 =      1 
    BETA0 =   17.8 
    IJTHDFWD =    0.1 
    IJTHSFWD =    0.1 
    IJTHDREV =    0.1 
    IJTHSREV =    0.1 
    XJBVD =      1 
    XJBVS =      1 
    BVD =   8.55 
    BVS =   8.55 
    VFB =     -1 
    GBMIN = 1e-012 
    RBDB =     50 
    RBPB =     50 
    RBSB =     50 
    RBPS =     50 
    RBPD =     50 
    CGSL = 7e-011 
    CGDL = 7e-011 
    CKAPPAS =    0.6 
    CKAPPAD =    0.6 
    CF = 6.6e-011 
    CLC =      0 
    CLE =    0.6 
    DWC =      0 
    DLC = 8.28e-009 
    DLCIG = 4e-009 
    DWJ =      0 
    VFBCV =     -1 
    ACDE = 0.4808 
    MOIN =  10.44 
    NOFF =  1.687 
    VOFFCV = -0.04669 
    DMCG = 6.3e-008 
    DMCI = 1.98e-007 
    DMDG =      0 
    DMCGT =      0 
    XGW =      0 
    XGL =      0 
    RSHG =    0.1 
    NGCON =      1 
    TCJ = 0.0007072 
    TPB = 0.001307 
    TCJSW = 0.0008212 
    TPBSW = 0.00108 
    TCJSWG = 0.0022 
    TPBSWG = 1e-005 
    SK0 =      0 
    SK1 =      0 
    SK2 =      0 
    SL = 2e-006 
    SW = 2e-006 
    K =      0 
    LCIT = 2.25e-010 
    LNFACTOR = 2e-008 
    LVSAT = -0.00235 
    LAT = -0.0003042 
    LA0 = -9e-009 
    LAGS = 5.897e-007 
    LKETA = 1e-009 
    LKT1 = -6.746e-009 
    LK2 = 2.2e-009 
    LLPE0 = 4.3e-015 
    LDVT0 = 1.552e-008 
    LVTH0 = 3.314e-009 
    LUA = -3.543e-017 
    LUA1 = 8.387e-017 
    LUB = 1.165e-025 
    LUB1 = -1.382e-025 
    LUC = 7e-018 
    LU0 = 8.417e-011 
    LVOFF = -4.124e-009 
    LMINV = -9.6e-010 
    LDELTA = 2e-009 
    LETA0 = -1.658e-009 
    LETAB = -1.5e-010 
    LPCLM = -1.476e-009 
    LPDIBLC2 = 1.51e-009 
    LALPHA0 = -9.009e-016 
    LALPHA1 = -6.23e-007 
    LBETA0 = -1.2e-007 
    LNOFF = 2e-008 
    LVOFFCV = -2.928e-009 
    WA0 = -2e-008 
    WAGS = 3.8e-008 
    WKETA = 5e-009 
    WK2 = -9e-010 
    WK3 = -8e-008 
    WDVTP0 = 1.2e-014 
    WDVT0 = 6e-009 
    WVTH0 = 5.256e-009 
    WUB = 1.456e-026 
    WUB1 = 5e-027 
    WU0 = 2.413e-010 
    WVOFF = 4e-010 
    PCIT = -9e-018 
    PNFACTOR = 4e-015 
    PVSAT = -4.8e-011 
    PAT = -5.842e-011 
    PA0 = 2e-014 
    PAGS = -5e-014 
    PKETA = -4e-017 
    PKT1 = 2e-017 
    PK2 = 8.143e-017 
    PPE0 = -8.16e-024 
    PVTH0 = -4.879e-016 
    PUA = -5.246e-024 
    PUA1 = 1.681e-023 
    PUB = 1.431e-032 
    PUB1 = -1.782e-032 
    PUC = 8e-025 
    PUC1 = -2e-024 
    PU0 = 1.501e-017 
    PVOFF = 2.131e-017 
    PMINV = -2.701e-015 
    PETA0 = -5e-018 
    PPCLM = -1.5e-016 
    PPDIBLC2 = -9e-017 
    PALPHA0 = 3e-022 
    PALPHA1 = 5.612e-015 
    PBETA0 = 1e-014 
    TNOM =  298.1 
    CGSO = 5.4e-011 
    CGDO = 5.4e-011 
    CGBO =      0 
    XPART =      1 
    RSH =     10 
    JSS = 4.379e-008 
    JSWS = 1.2e-013 
    JSWGS = 1.53e-012 
    PBS =   0.79 
    MJS = 0.3586 
    PBSWS = 0.2783 
    MJSWS = 0.1224 
    CJS = 0.00141 
    CJSWS = 5.496e-011 
    NJS = 0.9993 
    PBSWGS =    0.4 
    MJSWGS =    0.9 
    CJSWGS = 2.12e-010 
    XTIS =  6.685 
    JSD = 4.379e-008 
    JSWD = 1.2e-013 
    JSWGD = 1.53e-012 
    PBD =   0.79 
    MJD = 0.3586 
    PBSWD = 0.2783 
    MJSWD = 0.1224 
    CJD = 0.00141 
    CJSWD = 5.496e-011 
    NJD = 0.9993 
    PBSWGD =    0.4 
    MJSWGD =    0.9 
    CJSWGD = 2.12e-010 
    XTID =  6.685 
    LMLT =      1 
    WMLT =      1 
    LINT = -1.013e-008 
    LL = 2.169e-016 
    LLC =      0 
    LLN =   1.05 
    LW =      0 
    LWC =      0 
    LWN =      1 
    LWL =      0 
    LWLC =      0 
    LMIN = 3.6e-008 
    LMAX = 0.0001 
    WINT = -2.291e-008 
    WL =      0 
    WLC =      0 
    WLN =      1 
    WW = 3.093e-015 
    WWC =      0 
    WWN =   0.98 
    WWL = -6e-023 
    WWLC =      0 
    WMIN = 1.08e-007 
    WMAX = 0.0001 
    NOIA = 4e+042 
    NOIB = 1.01e+025 
    NOIC = 1e+010 
    EM = 6e+007 
    EF =    1.1 
    AF =      1 
    KF =      0 
    TRS =      0 
    TRD =      0 
    TEMPMOD  =      0 
    LAMBDA   =      0 
    VTL      = 2e+005 m/s
    LC       = 5e-009 
    XN       =      3 
    LLAMBDA  =      0 
    LVTL     =      0 
    LXN      =      0 
    WLAMBDA  =      0 
    WVTL     =      0 
    WXN      =      0 
    PLAMBDA  =      0 
    PVTL     =      0 
    PXN      =      0 
    RNOIA    =  0.577 
    RNOIB    = 0.5164 
    SAREF(SA0) = 2.61e-007 m
    SBREF(SB0) = 2.61e-007 m
    WLOD     =      0 m
    KU0      = 1.25e-009 1/m
    KVSAT    =      1 
    KVTH0    = -7.5e-010 m
    TKU0     =      0 
    LLODKU0  =      1 
    WLODKU0  =      1 
    LLODVTH  =      1 
    WLODVTH  =      1 
    LKU0     = 1e-008 
    WKU0     =      0 
    PKU0     =      0 
    LKVTH0   = -2.784e-008 
    WKVTH0   =      0 
    PKVTH0   = 2e-016 
    STK2     =      0 
    LODK2    =      1 
    STETA0   =      0 
    LODETA0  =      1 
    LXRCRG1  =      0 
    WXRCRG1  =      0 
    PXRCRG1  =      0 
    LXRCRG2  =      0 
    WXRCRG2  =      0 
    PXRCRG2  =      0 
 

    *** UCB's BSIM4.4.0 new diode model is activated. ***
    *** UCB's Diode Model Parameters ***

    JTSS         =      0 
    JTSSWS       =      0 
    JTSSWGS      = 2e-008 
    JTSD         =      0 
    JTSSWD       =      0 
    JTSSWGD      = 2e-008 
    NJTS         =     20 
    NJTSSW       =     20 
    NJTSSWG      =     20 
    XTSS         =   0.02 
    XTSSWS       =   0.02 
    XTSSWGS      =   0.02 
    XTSD         =   0.02 
    XTSSWD       =   0.02 
    XTSSWGD      =   0.02 
    TNJTS        =      0 
    TNJTSSW      =      0 
    TNJTSSWG     =      0 
    VFBSDOFF     =      0 
    LVFBSDOFF    =      0 
    WVFBSDOFF    =      0 
    PVFBSDOFF    =      0 
    LINTNOI      = -1e-008 
    VTSS         =     10 
    VTSD         =     10 
    VTSSWS       =     10 
    VTSSWD       =     10 
    VTSSWGS      =     10 
    VTSSWGD      =     10 
    TTDIOMOD     =      1 
 

    *** UCB's BSIM4.5.0 new model is activated. ***
    UD         = 1e+014 
    UD1        =      0 
    UP         =      0 
    LP         = 1e-008 
    TVOFF      =      0 
    TVFBSDOFF  =      0 
    RBPS0      =     50 
    RBPSL      =      0 
    RBPSW      =      0 
    RBPSNF     =      0 
    RBPD0      =     50 
    RBPDL      =      0 
    RBPDW      =      0 
    RBPDNF     =      0 
    RBPBX0     =    100 
    RBPBXL     =      0 
    RBPBXW     =      0 
    RBPBXNF    =      0 
    RBPBY0     =    100 
    RBPBYL     =      0 
    RBPBYW     =      0 
    RBPBYNF    =      0 
    RBSBX0     =    100 
    RBSBY0     =    100 
    RBDBX0     =    100 
    RBDBY0     =    100 
    RBSDBXL    =      0 
    RBSDBXW    =      0 
    RBSDBXNF   =      0 
    RBSDBYL    =      0 
    RBSDBYW    =      0 
    RBSDBYNF   =      0 
    LUD        =      0 
    LUD1       =      0 
    LUP        =      0 
    LLP        =      0 
    LTVOFF     =      0 
    LTVFBSDOFF =      0 
    WUD        =      0 
    WUD1       =      0 
    WUP        =      0 
    WLP        =      0 
    WTVOFF     =      0 
    WTVFBSDOFF =      0 
    PUD        =      0 
    PUD1       =      0 
    PUP        =      0 
    PLP        =      0 
    PTVOFF     =      0 
    PTVFBSDOFF =      0 
    WEB        =      1 
    WEC        =      1 
    KVTH0WE    = -0.004 
    K2WE       =      0 
    KU0WE      = -0.001 
    SCREF      = 1e-006 
    WPEMOD     =      1 
    LKVTH0WE   = 1.092e-010 
    LK2WE      =      0 
    LKU0WE     =      0 
    WKVTH0WE   = 5e-010 
    WK2WE      =      0 
    WKU0WE     = 1.2e-010 
    PKVTH0WE   = -1.3e-017 
    PK2WE      =      0 
    PKU0WE     = -5.4e-018 
 

 
Model Name: n11ll_ckt  

 BSIM4 Model (Level 54)

    MOBMOD = 0
    BINUNIT = 2
    PARAMCHK = 1
    CAPMOD = 2
    DIOMOD = 2
    RDSMOD = 1
    TRNQSMOD = 0
    ACNQSMOD = 0
    RBODYMOD = 0
    RGATEMOD = 0
    PERMOD = 1
    GEOMOD = 0
    RGEOMOD = 1
    FNOIMOD = 1
    TNOIMOD = 0
    IGCMOD = 2
    IGBMOD = 1
    STIMOD = 1
    VBFWDMOD = 0
    VERSION =    4.5 
    TOXREF = 2.37e-009 
    TOXE = 2.37e-009 
    TOXP = 2.262e-009 
    TOXM = 2.37e-009 
    DTOX = 1.08e-010 
    EPSROX =    3.9 
    CDSC = 0.002458 
    CDSCB = 5e-005 
    CDSCD = 0.001018 
    CIT = 0.00175 
    NFACTOR =    1.3 
    XJ = 9.7e-008 
    VSAT = 1.092e+005 
    A0 =    2.3 
    AGS = 0.7794 
    A1 =      0 
    A2 =      1 
    AT = 2.5e+004 
    KETA = -0.0085 
    NSUB = 6e+016 
    NDEP = 1.3e+017 
    NSD = 1e+020 
    NGATE = 2e+021 
    GAMMA1 =      0 
    GAMMA2 =      0 
    VBX =      0 
    VBM =     -3 
    XT = 1.55e-007 
    K1 = 0.3103 
    KT1 = -0.244 
    KT1L =      0 
    KT2 =  -0.04 
    K2 = -0.00895 
    K3 =    1.5 
    K3B =   5.64 
    LPE0 =      0 
    LPEB =      0 
    DVTP0 = 9.536e-006 
    DVTP1 =      0 
    W0 =      0 
    DVT0 =      0 
    DVT1 =  2.067 
    DVT2 =      0 
    DVT0W =      0 
    DVT1W = 5.724e+006 
    DVT2W = -0.016 
    DROUT =   0.56 
    DSUB =   0.56 
    VTH0 =  0.329 
    EU =   1.67 
    UA = -9.9e-010 
    UA1 = 1.612e-009 
    UB = 1.8e-018 
    UB1 = -1.46e-018 
    UC = 1.049e-010 
    UC1 = 5.2e-011 
    U0 =  0.026 
    UTE =  -1.03 
    VOFF = -0.154 
    VOFFL = -1e-009 
    MINV = -0.3522 
    FPROUT =      0 
    PDITS =  1.123 
    PDITSD = 0.6661 
    PDITSL = 4.357e+006 
    DELTA = 0.01076 
    RDSW =    200 
    RDSWMIN =      0 
    RDWMIN =      0 
    RSWMIN =      0 
    RDW =     24 
    RSW =     24 
    PRWG =      1 
    PRWB =      0 
    PRT =      0 
    ETA0 =  0.003 
    ETAB = -0.1502 
    PCLM = 0.01243 
    PDIBLC1 =      0 
    PDIBLC2 = 0.01303 
    PDIBLCB =      0 
    PSCBE1 = 6.24e+008 
    PSCBE2 = 1e-005 
    PVAG =      0 
    WR =      1 
    DWG =      0 
    DWB =      0 
    XW = 1.7e-008 
    XWREF = 1.7e-008 
    XL = 5.8e-009 
    XLREF = 5.8e-009 
    B0 = 2.16e-008 
    B1 =      0 
    ALPHA0 = 7.286e-008 
    ALPHA1 =  1.272 
    AGIDL = 4.3e-011 
    BGIDL = 8.7e+008 
    CGIDL =  15.66 
    PHIN = 0.1444 
    EGIDL =      0 
    AIGC = 0.01214 
    BIGC = 0.00167 
    CIGC = 0.03508 
    AIGSD = 0.01079 
    BIGSD = 0.00055 
    CIGSD =  0.001 
    AIGBACC = 0.02487 
    BIGBACC = 0.00171 
    CIGBACC =  0.075 
    AIGBINV = 0.0111 
    BIGBINV = 0.000949 
    CIGBINV =  0.006 
    NIGC =   2.43 
    NIGBINV =      3 
    NIGBACC =      1 
    NTOX =      1 
    EIGBINV =    1.1 
    PIGCD =  3.616 
    POXEDGE =      1 
    XRCRG1 =     12 
    TNOIA =    1.5 
    TNOIB =    3.5 
    NTNOI =      1 
    XRCRG2 =      1 
    BETA0 =  13.33 
    IJTHDFWD =    0.1 
    IJTHSFWD =    0.1 
    IJTHDREV =    0.1 
    IJTHSREV =    0.1 
    XJBVD =      1 
    XJBVS =      1 
    BVD =    9.3 
    BVS =    9.3 
    VFB =     -1 
    GBMIN = 1e-012 
    RBDB =     50 
    RBPB =     50 
    RBSB =     50 
    RBPS =     50 
    RBPD =     50 
    CGSL = 5.7e-011 
    CGDL = 5.7e-011 
    CKAPPAS =    0.6 
    CKAPPAD =    0.6 
    CF = 7.715e-011 
    CLC = 1e-007 
    CLE =    0.6 
    DWC =      0 
    DLC = 7.62e-009 
    DLCIG = 3.5e-010 
    DWJ =      0 
    VFBCV =     -1 
    ACDE = 0.2478 
    MOIN =    5.4 
    NOFF =  2.088 
    VOFFCV = -0.1225 
    DMCG = 6.3e-008 
    DMCI = 1.98e-007 
    DMDG =      0 
    DMCGT =      0 
    XGW =      0 
    XGL =      0 
    RSHG =    0.1 
    NGCON =      1 
    TCJ = 0.0005575 
    TPB = 0.0007973 
    TCJSW = 0.009706 
    TPBSW = 0.001692 
    TCJSWG = 0.0005678 
    TPBSWG = 0.0001624 
    SK0 =      0 
    SK1 =      0 
    SK2 =      0 
    SL = 2e-006 
    SW = 2e-006 
    K =      0 
    LCIT = 2.149e-010 
    LVSAT = 0.0007432 
    LA0 = 7.943e-008 
    LAGS = 3.914e-007 
    LKETA = 3.036e-009 
    LKT1 = -3.16e-009 
    LK2 = 9.739e-010 
    LLPE0 = 3.681e-015 
    LDVT0 = 4.541e-007 
    LDVT1 = -6.731e-008 
    LVTH0 = -7.692e-010 
    LUA = 1.56e-017 
    LUB = 1.14e-025 
    LUB1 = 5e-026 
    LUC = 1.121e-017 
    LUC1 = 1.2e-017 
    LU0 = 1.72e-009 
    LUTE = 3.98e-008 
    LVOFF = -3.386e-009 
    LMINV = 6.117e-009 
    LDELTA = 3.229e-009 
    LETA0 = 7.13e-009 
    LETAB = 5.31e-009 
    LPDIBLC2 = -5.591e-010 
    LPDITS = -4.334e-008 
    LALPHA1 = -6.1e-008 
    LBETA0 = -1e-008 
    LAIGC = -4.9e-011 
    LCIGC = 3.9e-009 
    LPIGCD = 3.3e-007 
    LNOFF = 4.7e-008 
    LVOFFCV = -1.9e-009 
    WCIT = 7.4e-011 
    WA0 = -5.024e-007 
    WAGS = 4.352e-008 
    WKETA = -9.53e-009 
    WKT1 = -5.4e-009 
    WK2 = 8.796e-009 
    WK3 = 1.1e-007 
    WDVT1 = -1.591e-008 
    WVTH0 = -1.044e-008 
    WUA = 6.315e-017 
    WUB = -5e-027 
    WUC = 1e-018 
    WU0 = 4.939e-010 
    WUTE = -1.8e-008 
    WBETA0 = -1.3e-008 
    WAIGC = 3.18e-011 
    PCIT = -9.402e-018 
    PVSAT = -9.395e-011 
    PA0 = 6.304e-014 
    PAGS = -7.124e-014 
    PKETA = 1.18e-015 
    PKT1 = 7e-017 
    PK2 = 1.209e-016 
    PK3 = 5.259e-015 
    PPE0 = 6.35e-022 
    PVTH0 = -9.382e-016 
    PUA = -1.7e-024 
    PUB = 7.1e-034 
    PUC = 4e-025 
    PU0 = -9.398e-017 
    PUTE = 6.94e-016 
    PVOFF = 1.498e-016 
    PETA0 = -6.785e-017 
    PETAB = -6.4e-017 
    PPDIBLC2 = 1.4e-016 
    TNOM =  298.1 
    CGSO = 6.73e-011 
    CGDO = 6.73e-011 
    CGBO =      0 
    XPART =      1 
    RSH =     18 
    JSS = 1.713e-008 
    JSWS = 2.568e-014 
    JSWGS = 5.96e-013 
    PBS = 0.4588 
    MJS = 0.2584 
    PBSWS = 0.9848 
    MJSWS = 0.2245 
    CJS = 0.001473 
    CJSWS = 5.148e-011 
    NJS = 0.9293 
    PBSWGS =   0.43 
    MJSWGS =   0.97 
    CJSWGS = 2.8e-010 
    XTIS =   3.38 
    JSD = 1.713e-008 
    JSWD = 2.568e-014 
    JSWGD = 5.96e-013 
    PBD = 0.4588 
    MJD = 0.2584 
    PBSWD = 0.9848 
    MJSWD = 0.2245 
    CJD = 0.001473 
    CJSWD = 5.148e-011 
    NJD = 0.9293 
    PBSWGD =   0.43 
    MJSWGD =   0.97 
    CJSWGD = 2.8e-010 
    XTID =   3.38 
    LMLT =      1 
    WMLT =      1 
    LINT = 8.8e-010 
    LL = -2.846e-016 
    LLC =      0 
    LLN =      1 
    LW = -9.6e-016 
    LWC =      0 
    LWN =   1.02 
    LWL = 3.013e-023 
    LWLC =      0 
    LMIN = 3.6e-008 
    LMAX = 0.0001 
    WINT = -2.25e-008 
    WL = -9.271e-016 
    WLC =      0 
    WLN =   0.86 
    WW = 2.7e-016 
    WWC =      0 
    WWN =      1 
    WWL = 1.696e-022 
    WWLC =      0 
    WMIN = 1.08e-007 
    WMAX = 0.0001 
    NOIA = 4.7e+041 
    NOIB = 4.293e+025 
    NOIC = 5.963e+008 
    EM = 4.1e+007 
    EF =   0.98 
    AF =      1 
    KF =      0 
    TRS =      0 
    TRD =      0 
    TEMPMOD  =      0 
    LAMBDA   =      0 
    VTL      = 2e+005 m/s
    LC       = 5e-009 
    XN       =      3 
    LLAMBDA  =      0 
    LVTL     =      0 
    LXN      =      0 
    WLAMBDA  =      0 
    WVTL     =      0 
    WXN      =      0 
    PLAMBDA  =      0 
    PVTL     =      0 
    PXN      =      0 
    RNOIA    =  0.577 
    RNOIB    = 0.5164 
    SAREF(SA0) = 2.61e-007 m
    SBREF(SB0) = 2.61e-007 m
    WLOD     =      0 m
    KU0      = -1e-008 1/m
    KVSAT    =      1 
    KVTH0    = 1.2e-009 m
    TKU0     =      0 
    LLODKU0  =      1 
    WLODKU0  =      1 
    LLODVTH  =      1 
    WLODVTH  =      1 
    LKU0     = 1e-006 
    WKU0     = 2e-006 
    PKU0     =      0 
    LKVTH0   = 3e-008 
    WKVTH0   = 9e-008 
    PKVTH0   =      0 
    STK2     =      0 
    LODK2    =      1 
    STETA0   = -6e-010 
    LODETA0  =      1 
    LXRCRG1  =      0 
    WXRCRG1  =      0 
    PXRCRG1  =      0 
    LXRCRG2  =      0 
    WXRCRG2  =      0 
    PXRCRG2  =      0 
 

    *** UCB's BSIM4.4.0 new diode model is activated. ***
    *** UCB's Diode Model Parameters ***

    JTSS         =      0 
    JTSSWS       =      0 
    JTSSWGS      = 1e-007 
    JTSD         =      0 
    JTSSWD       =      0 
    JTSSWGD      = 1e-007 
    NJTS         =     20 
    NJTSSW       =     20 
    NJTSSWG      =     20 
    XTSS         =   0.02 
    XTSSWS       =   0.02 
    XTSSWGS      =   0.02 
    XTSD         =   0.02 
    XTSSWD       =   0.02 
    XTSSWGD      =   0.02 
    TNJTS        =      0 
    TNJTSSW      =      0 
    TNJTSSWG     =      0 
    VFBSDOFF     =      0 
    LVFBSDOFF    =      0 
    WVFBSDOFF    =      0 
    PVFBSDOFF    =      0 
    LINTNOI      =      0 
    VTSS         =     10 
    VTSD         =     10 
    VTSSWS       =     10 
    VTSSWD       =     10 
    VTSSWGS      =     10 
    VTSSWGD      =     10 
    TTDIOMOD     =      1 
 

    *** UCB's BSIM4.5.0 new model is activated. ***
    UD         = 1e+014 
    UD1        =      0 
    UP         =      0 
    LP         = 1e-008 
    TVOFF      =  0.003 
    TVFBSDOFF  =      0 
    RBPS0      =     50 
    RBPSL      =      0 
    RBPSW      =      0 
    RBPSNF     =      0 
    RBPD0      =     50 
    RBPDL      =      0 
    RBPDW      =      0 
    RBPDNF     =      0 
    RBPBX0     =    100 
    RBPBXL     =      0 
    RBPBXW     =      0 
    RBPBXNF    =      0 
    RBPBY0     =    100 
    RBPBYL     =      0 
    RBPBYW     =      0 
    RBPBYNF    =      0 
    RBSBX0     =    100 
    RBSBY0     =    100 
    RBDBX0     =    100 
    RBDBY0     =    100 
    RBSDBXL    =      0 
    RBSDBXW    =      0 
    RBSDBXNF   =      0 
    RBSDBYL    =      0 
    RBSDBYW    =      0 
    RBSDBYNF   =      0 
    LUD        =      0 
    LUD1       =      0 
    LUP        =      0 
    LLP        =      0 
    LTVOFF     = -3e-011 
    LTVFBSDOFF =      0 
    WUD        =      0 
    WUD1       =      0 
    WUP        =      0 
    WLP        =      0 
    WTVOFF     =      0 
    WTVFBSDOFF =      0 
    PUD        =      0 
    PUD1       =      0 
    PUP        =      0 
    PLP        =      0 
    PTVOFF     =      0 
    PTVFBSDOFF =      0 
    WEB        =      1 
    WEC        =      1 
    KVTH0WE    = 0.0012 
    K2WE       =      0 
    KU0WE      = -0.0003 
    SCREF      = 1e-006 
    WPEMOD     =      1 
    LKVTH0WE   =      0 
    LK2WE      =      0 
    LKU0WE     =      0 
    WKVTH0WE   = -1.2e-010 
    WK2WE      =      0 
    WKU0WE     =      0 
    PKVTH0WE   =      0 
    PK2WE      =      0 
    PKU0WE     =      0 
 

 
Model Name: p11ll_ckt  

 BSIM4 Model (Level 54)

    MOBMOD = 0
    BINUNIT = 2
    PARAMCHK = 1
    CAPMOD = 2
    DIOMOD = 2
    RDSMOD = 1
    TRNQSMOD = 0
    ACNQSMOD = 0
    RBODYMOD = 0
    RGATEMOD = 0
    PERMOD = 1
    GEOMOD = 0
    RGEOMOD = 1
    FNOIMOD = 1
    TNOIMOD = 0
    IGCMOD = 2
    IGBMOD = 1
    STIMOD = 1
    VBFWDMOD = 0
    VERSION =    4.5 
    TOXREF = 2.7e-009 
    TOXE = 2.7e-009 
    TOXP = 2.49e-009 
    TOXM = 2.7e-009 
    DTOX = 2.1e-010 
    EPSROX =    3.9 
    CDSC = 0.00024 
    CDSCB =      0 
    CDSCD =      0 
    CIT = 1e-007 
    NFACTOR =      1 
    XJ = 8.6e-008 
    VSAT = 1.469e+005 
    A0 =    2.3 
    AGS = 0.3226 
    A1 =      0 
    A2 =      1 
    AT = 3.3e+004 
    KETA = -0.002 
    NSUB = 6e+016 
    NDEP = 1e+017 
    NSD = 1e+020 
    NGATE = 8e+020 
    GAMMA1 =      0 
    GAMMA2 =      0 
    VBX =      0 
    VBM =     -3 
    XT = 1.55e-007 
    K1 = 0.2905 
    KT1 = -0.2942 
    KT1L =      0 
    KT2 = -0.0285 
    K2 = -0.03273 
    K3 =    0.5 
    K3B = 0.9348 
    LPE0 = 1.073e-008 
    LPEB = 7.08e-009 
    DVTP0 = 1.295e-006 
    DVTP1 =      0 
    W0 = 9e-006 
    DVT0 = 0.6192 
    DVT1 =    0.7 
    DVT2 = -0.002 
    DVT0W =      0 
    DVT1W = 5.3e+006 
    DVT2W = -0.032 
    DROUT =   0.56 
    DSUB =   0.56 
    VTH0 = -0.3662 
    EU =      1 
    UA = -1.8e-010 
    UA1 = 1.12e-009 
    UB = 1.052e-018 
    UB1 = -2.442e-018 
    UC = -6e-012 
    UC1 = -5.6e-011 
    U0 = 0.008964 
    UTE =   -1.5 
    VOFF = -0.128 
    VOFFL =      0 
    MINV =  -0.28 
    FPROUT = 0.0001 
    PDITS = 0.4745 
    PDITSD =    0.9 
    PDITSL = 1e+005 
    DELTA =   0.01 
    RDSW =    200 
    RDSWMIN =      0 
    RDWMIN =      0 
    RSWMIN =      0 
    RDW =   70.8 
    RSW =   70.8 
    PRWG =      0 
    PRWB =      0 
    PRT =      0 
    ETA0 = 0.08006 
    ETAB = -0.0103 
    PCLM =    0.3 
    PDIBLC1 = 7.28e-008 
    PDIBLC2 = 0.0035 
    PDIBLCB =      0 
    PSCBE1 = 4.24e+008 
    PSCBE2 = 1e-005 
    PVAG =      1 
    WR =      1 
    DWG =      0 
    DWB =      0 
    XW = 1.8e-008 
    XWREF = 1.8e-008 
    XL = 5.1e-009 
    XLREF = 5.1e-009 
    B0 =      0 
    B1 =      0 
    ALPHA0 = 5.791e-007 
    ALPHA1 =  2.087 
    AGIDL = 1e-010 
    BGIDL = 1.425e+009 
    CGIDL =      1 
    PHIN =   0.06 
    EGIDL =   0.22 
    AIGC = 0.007371 
    BIGC = 0.00078 
    CIGC = 0.0003 
    AIGSD = 0.00605 
    BIGSD = 0.0002164 
    CIGSD = 0.0048 
    AIGBACC = 0.01236 
    BIGBACC = 0.006079 
    CIGBACC =  0.063 
    AIGBINV =   0.35 
    BIGBINV =   0.03 
    CIGBINV =  0.006 
    NIGC =    1.5 
    NIGBINV =      3 
    NIGBACC =      1 
    NTOX =      1 
    EIGBINV =      1 
    PIGCD =    2.8 
    POXEDGE =      1 
    XRCRG1 =     12 
    TNOIA =    1.5 
    TNOIB =    3.5 
    NTNOI =      1 
    XRCRG2 =      1 
    BETA0 =   17.8 
    IJTHDFWD =    0.1 
    IJTHSFWD =    0.1 
    IJTHDREV =    0.1 
    IJTHSREV =    0.1 
    XJBVD =      1 
    XJBVS =      1 
    BVD =   8.55 
    BVS =   8.55 
    VFB =     -1 
    GBMIN = 1e-012 
    RBDB =     50 
    RBPB =     50 
    RBSB =     50 
    RBPS =     50 
    RBPD =     50 
    CGSL = 7e-011 
    CGDL = 7e-011 
    CKAPPAS =    0.6 
    CKAPPAD =    0.6 
    CF = 6.6e-011 
    CLC =      0 
    CLE =    0.6 
    DWC =      0 
    DLC = 8.28e-009 
    DLCIG = 4e-009 
    DWJ =      0 
    VFBCV =     -1 
    ACDE = 0.4808 
    MOIN =  10.44 
    NOFF =  1.687 
    VOFFCV = -0.04669 
    DMCG = 6.3e-008 
    DMCI = 1.98e-007 
    DMDG =      0 
    DMCGT =      0 
    XGW =      0 
    XGL =      0 
    RSHG =    0.1 
    NGCON =      1 
    TCJ = 0.0007072 
    TPB = 0.001307 
    TCJSW = 0.0008212 
    TPBSW = 0.00108 
    TCJSWG = 0.0022 
    TPBSWG = 1e-005 
    SK0 =      0 
    SK1 =      0 
    SK2 =      0 
    SL = 2e-006 
    SW = 2e-006 
    K =      0 
    LCIT = 2.25e-010 
    LNFACTOR = 2e-008 
    LVSAT = -0.00235 
    LAT = -0.0003042 
    LA0 = -9e-009 
    LAGS = 5.897e-007 
    LKETA = 1e-009 
    LKT1 = -6.746e-009 
    LK2 = 2.2e-009 
    LLPE0 = 4.3e-015 
    LDVT0 = 1.552e-008 
    LVTH0 = 3.314e-009 
    LUA = -3.543e-017 
    LUA1 = 8.387e-017 
    LUB = 1.165e-025 
    LUB1 = -1.382e-025 
    LUC = 7e-018 
    LU0 = 8.417e-011 
    LVOFF = -4.124e-009 
    LMINV = -9.6e-010 
    LDELTA = 2e-009 
    LETA0 = -1.658e-009 
    LETAB = -1.5e-010 
    LPCLM = -1.476e-009 
    LPDIBLC2 = 1.51e-009 
    LALPHA0 = -9.009e-016 
    LALPHA1 = -6.23e-007 
    LBETA0 = -1.2e-007 
    LNOFF = 2e-008 
    LVOFFCV = -2.928e-009 
    WA0 = -2e-008 
    WAGS = 3.8e-008 
    WKETA = 5e-009 
    WK2 = -9e-010 
    WK3 = -8e-008 
    WDVTP0 = 1.2e-014 
    WDVT0 = 6e-009 
    WVTH0 = 5.256e-009 
    WUB = 1.456e-026 
    WUB1 = 5e-027 
    WU0 = 2.413e-010 
    WVOFF = 4e-010 
    PCIT = -9e-018 
    PNFACTOR = 4e-015 
    PVSAT = -4.8e-011 
    PAT = -5.842e-011 
    PA0 = 2e-014 
    PAGS = -5e-014 
    PKETA = -4e-017 
    PKT1 = 2e-017 
    PK2 = 8.143e-017 
    PPE0 = -8.16e-024 
    PVTH0 = -4.879e-016 
    PUA = -5.246e-024 
    PUA1 = 1.681e-023 
    PUB = 1.431e-032 
    PUB1 = -1.782e-032 
    PUC = 8e-025 
    PUC1 = -2e-024 
    PU0 = 1.501e-017 
    PVOFF = 2.131e-017 
    PMINV = -2.701e-015 
    PETA0 = -5e-018 
    PPCLM = -1.5e-016 
    PPDIBLC2 = -9e-017 
    PALPHA0 = 3e-022 
    PALPHA1 = 5.612e-015 
    PBETA0 = 1e-014 
    TNOM =  298.1 
    CGSO = 5.4e-011 
    CGDO = 5.4e-011 
    CGBO =      0 
    XPART =      1 
    RSH =     10 
    JSS = 4.379e-008 
    JSWS = 1.2e-013 
    JSWGS = 1.53e-012 
    PBS =   0.79 
    MJS = 0.3586 
    PBSWS = 0.2783 
    MJSWS = 0.1224 
    CJS = 0.00141 
    CJSWS = 5.496e-011 
    NJS = 0.9993 
    PBSWGS =    0.4 
    MJSWGS =    0.9 
    CJSWGS = 2.12e-010 
    XTIS =  6.685 
    JSD = 4.379e-008 
    JSWD = 1.2e-013 
    JSWGD = 1.53e-012 
    PBD =   0.79 
    MJD = 0.3586 
    PBSWD = 0.2783 
    MJSWD = 0.1224 
    CJD = 0.00141 
    CJSWD = 5.496e-011 
    NJD = 0.9993 
    PBSWGD =    0.4 
    MJSWGD =    0.9 
    CJSWGD = 2.12e-010 
    XTID =  6.685 
    LMLT =      1 
    WMLT =      1 
    LINT = -1.013e-008 
    LL = 2.169e-016 
    LLC =      0 
    LLN =   1.05 
    LW =      0 
    LWC =      0 
    LWN =      1 
    LWL =      0 
    LWLC =      0 
    LMIN = 3.6e-008 
    LMAX = 0.0001 
    WINT = -2.291e-008 
    WL =      0 
    WLC =      0 
    WLN =      1 
    WW = 3.093e-015 
    WWC =      0 
    WWN =   0.98 
    WWL = -6e-023 
    WWLC =      0 
    WMIN = 1.08e-007 
    WMAX = 0.0001 
    NOIA = 4e+042 
    NOIB = 1.01e+025 
    NOIC = 1e+010 
    EM = 6e+007 
    EF =    1.1 
    AF =      1 
    KF =      0 
    TRS =      0 
    TRD =      0 
    TEMPMOD  =      0 
    LAMBDA   =      0 
    VTL      = 2e+005 m/s
    LC       = 5e-009 
    XN       =      3 
    LLAMBDA  =      0 
    LVTL     =      0 
    LXN      =      0 
    WLAMBDA  =      0 
    WVTL     =      0 
    WXN      =      0 
    PLAMBDA  =      0 
    PVTL     =      0 
    PXN      =      0 
    RNOIA    =  0.577 
    RNOIB    = 0.5164 
    SAREF(SA0) = 2.61e-007 m
    SBREF(SB0) = 2.61e-007 m
    WLOD     =      0 m
    KU0      = 1.25e-009 1/m
    KVSAT    =      1 
    KVTH0    = -7.5e-010 m
    TKU0     =      0 
    LLODKU0  =      1 
    WLODKU0  =      1 
    LLODVTH  =      1 
    WLODVTH  =      1 
    LKU0     = 1e-008 
    WKU0     =      0 
    PKU0     =      0 
    LKVTH0   = -2.784e-008 
    WKVTH0   =      0 
    PKVTH0   = 2e-016 
    STK2     =      0 
    LODK2    =      1 
    STETA0   =      0 
    LODETA0  =      1 
    LXRCRG1  =      0 
    WXRCRG1  =      0 
    PXRCRG1  =      0 
    LXRCRG2  =      0 
    WXRCRG2  =      0 
    PXRCRG2  =      0 
 

    *** UCB's BSIM4.4.0 new diode model is activated. ***
    *** UCB's Diode Model Parameters ***

    JTSS         =      0 
    JTSSWS       =      0 
    JTSSWGS      = 2e-008 
    JTSD         =      0 
    JTSSWD       =      0 
    JTSSWGD      = 2e-008 
    NJTS         =     20 
    NJTSSW       =     20 
    NJTSSWG      =     20 
    XTSS         =   0.02 
    XTSSWS       =   0.02 
    XTSSWGS      =   0.02 
    XTSD         =   0.02 
    XTSSWD       =   0.02 
    XTSSWGD      =   0.02 
    TNJTS        =      0 
    TNJTSSW      =      0 
    TNJTSSWG     =      0 
    VFBSDOFF     =      0 
    LVFBSDOFF    =      0 
    WVFBSDOFF    =      0 
    PVFBSDOFF    =      0 
    LINTNOI      = -1e-008 
    VTSS         =     10 
    VTSD         =     10 
    VTSSWS       =     10 
    VTSSWD       =     10 
    VTSSWGS      =     10 
    VTSSWGD      =     10 
    TTDIOMOD     =      1 
 

    *** UCB's BSIM4.5.0 new model is activated. ***
    UD         = 1e+014 
    UD1        =      0 
    UP         =      0 
    LP         = 1e-008 
    TVOFF      =      0 
    TVFBSDOFF  =      0 
    RBPS0      =     50 
    RBPSL      =      0 
    RBPSW      =      0 
    RBPSNF     =      0 
    RBPD0      =     50 
    RBPDL      =      0 
    RBPDW      =      0 
    RBPDNF     =      0 
    RBPBX0     =    100 
    RBPBXL     =      0 
    RBPBXW     =      0 
    RBPBXNF    =      0 
    RBPBY0     =    100 
    RBPBYL     =      0 
    RBPBYW     =      0 
    RBPBYNF    =      0 
    RBSBX0     =    100 
    RBSBY0     =    100 
    RBDBX0     =    100 
    RBDBY0     =    100 
    RBSDBXL    =      0 
    RBSDBXW    =      0 
    RBSDBXNF   =      0 
    RBSDBYL    =      0 
    RBSDBYW    =      0 
    RBSDBYNF   =      0 
    LUD        =      0 
    LUD1       =      0 
    LUP        =      0 
    LLP        =      0 
    LTVOFF     =      0 
    LTVFBSDOFF =      0 
    WUD        =      0 
    WUD1       =      0 
    WUP        =      0 
    WLP        =      0 
    WTVOFF     =      0 
    WTVFBSDOFF =      0 
    PUD        =      0 
    PUD1       =      0 
    PUP        =      0 
    PLP        =      0 
    PTVOFF     =      0 
    PTVFBSDOFF =      0 
    WEB        =      1 
    WEC        =      1 
    KVTH0WE    = -0.004 
    K2WE       =      0 
    KU0WE      = -0.001 
    SCREF      = 1e-006 
    WPEMOD     =      1 
    LKVTH0WE   = 1.092e-010 
    LK2WE      =      0 
    LKU0WE     =      0 
    WKVTH0WE   = 5e-010 
    WK2WE      =      0 
    WKU0WE     = 1.2e-010 
    PKVTH0WE   = -1.3e-017 
    PK2WE      =      0 
    PKU0WE     = -5.4e-018 
 

 
Model Name: n11ll_ckt  

 BSIM4 Model (Level 54)

    MOBMOD = 0
    BINUNIT = 2
    PARAMCHK = 1
    CAPMOD = 2
    DIOMOD = 2
    RDSMOD = 1
    TRNQSMOD = 0
    ACNQSMOD = 0
    RBODYMOD = 0
    RGATEMOD = 0
    PERMOD = 1
    GEOMOD = 0
    RGEOMOD = 1
    FNOIMOD = 1
    TNOIMOD = 0
    IGCMOD = 2
    IGBMOD = 1
    STIMOD = 1
    VBFWDMOD = 0
    VERSION =    4.5 
    TOXREF = 2.37e-009 
    TOXE = 2.37e-009 
    TOXP = 2.262e-009 
    TOXM = 2.37e-009 
    DTOX = 1.08e-010 
    EPSROX =    3.9 
    CDSC = 0.002458 
    CDSCB = 5e-005 
    CDSCD = 0.001018 
    CIT = 0.00175 
    NFACTOR =    1.3 
    XJ = 9.7e-008 
    VSAT = 1.092e+005 
    A0 =    2.3 
    AGS = 0.7794 
    A1 =      0 
    A2 =      1 
    AT = 2.5e+004 
    KETA = -0.0085 
    NSUB = 6e+016 
    NDEP = 1.3e+017 
    NSD = 1e+020 
    NGATE = 2e+021 
    GAMMA1 =      0 
    GAMMA2 =      0 
    VBX =      0 
    VBM =     -3 
    XT = 1.55e-007 
    K1 = 0.3103 
    KT1 = -0.244 
    KT1L =      0 
    KT2 =  -0.04 
    K2 = -0.00895 
    K3 =    1.5 
    K3B =   5.64 
    LPE0 =      0 
    LPEB =      0 
    DVTP0 = 9.536e-006 
    DVTP1 =      0 
    W0 =      0 
    DVT0 =      0 
    DVT1 =  2.067 
    DVT2 =      0 
    DVT0W =      0 
    DVT1W = 5.724e+006 
    DVT2W = -0.016 
    DROUT =   0.56 
    DSUB =   0.56 
    VTH0 =  0.329 
    EU =   1.67 
    UA = -9.9e-010 
    UA1 = 1.612e-009 
    UB = 1.8e-018 
    UB1 = -1.46e-018 
    UC = 1.049e-010 
    UC1 = 5.2e-011 
    U0 =  0.026 
    UTE =  -1.03 
    VOFF = -0.154 
    VOFFL = -1e-009 
    MINV = -0.3522 
    FPROUT =      0 
    PDITS =  1.123 
    PDITSD = 0.6661 
    PDITSL = 4.357e+006 
    DELTA = 0.01076 
    RDSW =    200 
    RDSWMIN =      0 
    RDWMIN =      0 
    RSWMIN =      0 
    RDW =     24 
    RSW =     24 
    PRWG =      1 
    PRWB =      0 
    PRT =      0 
    ETA0 =  0.003 
    ETAB = -0.1502 
    PCLM = 0.01243 
    PDIBLC1 =      0 
    PDIBLC2 = 0.01303 
    PDIBLCB =      0 
    PSCBE1 = 6.24e+008 
    PSCBE2 = 1e-005 
    PVAG =      0 
    WR =      1 
    DWG =      0 
    DWB =      0 
    XW = 1.7e-008 
    XWREF = 1.7e-008 
    XL = 5.8e-009 
    XLREF = 5.8e-009 
    B0 = 2.16e-008 
    B1 =      0 
    ALPHA0 = 7.286e-008 
    ALPHA1 =  1.272 
    AGIDL = 4.3e-011 
    BGIDL = 8.7e+008 
    CGIDL =  15.66 
    PHIN = 0.1444 
    EGIDL =      0 
    AIGC = 0.01214 
    BIGC = 0.00167 
    CIGC = 0.03508 
    AIGSD = 0.01079 
    BIGSD = 0.00055 
    CIGSD =  0.001 
    AIGBACC = 0.02487 
    BIGBACC = 0.00171 
    CIGBACC =  0.075 
    AIGBINV = 0.0111 
    BIGBINV = 0.000949 
    CIGBINV =  0.006 
    NIGC =   2.43 
    NIGBINV =      3 
    NIGBACC =      1 
    NTOX =      1 
    EIGBINV =    1.1 
    PIGCD =  3.616 
    POXEDGE =      1 
    XRCRG1 =     12 
    TNOIA =    1.5 
    TNOIB =    3.5 
    NTNOI =      1 
    XRCRG2 =      1 
    BETA0 =  13.33 
    IJTHDFWD =    0.1 
    IJTHSFWD =    0.1 
    IJTHDREV =    0.1 
    IJTHSREV =    0.1 
    XJBVD =      1 
    XJBVS =      1 
    BVD =    9.3 
    BVS =    9.3 
    VFB =     -1 
    GBMIN = 1e-012 
    RBDB =     50 
    RBPB =     50 
    RBSB =     50 
    RBPS =     50 
    RBPD =     50 
    CGSL = 5.7e-011 
    CGDL = 5.7e-011 
    CKAPPAS =    0.6 
    CKAPPAD =    0.6 
    CF = 7.715e-011 
    CLC = 1e-007 
    CLE =    0.6 
    DWC =      0 
    DLC = 7.62e-009 
    DLCIG = 3.5e-010 
    DWJ =      0 
    VFBCV =     -1 
    ACDE = 0.2478 
    MOIN =    5.4 
    NOFF =  2.088 
    VOFFCV = -0.1225 
    DMCG = 6.3e-008 
    DMCI = 1.98e-007 
    DMDG =      0 
    DMCGT =      0 
    XGW =      0 
    XGL =      0 
    RSHG =    0.1 
    NGCON =      1 
    TCJ = 0.0005575 
    TPB = 0.0007973 
    TCJSW = 0.009706 
    TPBSW = 0.001692 
    TCJSWG = 0.0005678 
    TPBSWG = 0.0001624 
    SK0 =      0 
    SK1 =      0 
    SK2 =      0 
    SL = 2e-006 
    SW = 2e-006 
    K =      0 
    LCIT = 2.149e-010 
    LVSAT = 0.0007432 
    LA0 = 7.943e-008 
    LAGS = 3.914e-007 
    LKETA = 3.036e-009 
    LKT1 = -3.16e-009 
    LK2 = 9.739e-010 
    LLPE0 = 3.681e-015 
    LDVT0 = 4.541e-007 
    LDVT1 = -6.731e-008 
    LVTH0 = -7.692e-010 
    LUA = 1.56e-017 
    LUB = 1.14e-025 
    LUB1 = 5e-026 
    LUC = 1.121e-017 
    LUC1 = 1.2e-017 
    LU0 = 1.72e-009 
    LUTE = 3.98e-008 
    LVOFF = -3.386e-009 
    LMINV = 6.117e-009 
    LDELTA = 3.229e-009 
    LETA0 = 7.13e-009 
    LETAB = 5.31e-009 
    LPDIBLC2 = -5.591e-010 
    LPDITS = -4.334e-008 
    LALPHA1 = -6.1e-008 
    LBETA0 = -1e-008 
    LAIGC = -4.9e-011 
    LCIGC = 3.9e-009 
    LPIGCD = 3.3e-007 
    LNOFF = 4.7e-008 
    LVOFFCV = -1.9e-009 
    WCIT = 7.4e-011 
    WA0 = -5.024e-007 
    WAGS = 4.352e-008 
    WKETA = -9.53e-009 
    WKT1 = -5.4e-009 
    WK2 = 8.796e-009 
    WK3 = 1.1e-007 
    WDVT1 = -1.591e-008 
    WVTH0 = -1.044e-008 
    WUA = 6.315e-017 
    WUB = -5e-027 
    WUC = 1e-018 
    WU0 = 4.939e-010 
    WUTE = -1.8e-008 
    WBETA0 = -1.3e-008 
    WAIGC = 3.18e-011 
    PCIT = -9.402e-018 
    PVSAT = -9.395e-011 
    PA0 = 6.304e-014 
    PAGS = -7.124e-014 
    PKETA = 1.18e-015 
    PKT1 = 7e-017 
    PK2 = 1.209e-016 
    PK3 = 5.259e-015 
    PPE0 = 6.35e-022 
    PVTH0 = -9.382e-016 
    PUA = -1.7e-024 
    PUB = 7.1e-034 
    PUC = 4e-025 
    PU0 = -9.398e-017 
    PUTE = 6.94e-016 
    PVOFF = 1.498e-016 
    PETA0 = -6.785e-017 
    PETAB = -6.4e-017 
    PPDIBLC2 = 1.4e-016 
    TNOM =  298.1 
    CGSO = 6.73e-011 
    CGDO = 6.73e-011 
    CGBO =      0 
    XPART =      1 
    RSH =     18 
    JSS = 1.713e-008 
    JSWS = 2.568e-014 
    JSWGS = 5.96e-013 
    PBS = 0.4588 
    MJS = 0.2584 
    PBSWS = 0.9848 
    MJSWS = 0.2245 
    CJS = 0.001473 
    CJSWS = 5.148e-011 
    NJS = 0.9293 
    PBSWGS =   0.43 
    MJSWGS =   0.97 
    CJSWGS = 2.8e-010 
    XTIS =   3.38 
    JSD = 1.713e-008 
    JSWD = 2.568e-014 
    JSWGD = 5.96e-013 
    PBD = 0.4588 
    MJD = 0.2584 
    PBSWD = 0.9848 
    MJSWD = 0.2245 
    CJD = 0.001473 
    CJSWD = 5.148e-011 
    NJD = 0.9293 
    PBSWGD =   0.43 
    MJSWGD =   0.97 
    CJSWGD = 2.8e-010 
    XTID =   3.38 
    LMLT =      1 
    WMLT =      1 
    LINT = 8.8e-010 
    LL = -2.846e-016 
    LLC =      0 
    LLN =      1 
    LW = -9.6e-016 
    LWC =      0 
    LWN =   1.02 
    LWL = 3.013e-023 
    LWLC =      0 
    LMIN = 3.6e-008 
    LMAX = 0.0001 
    WINT = -2.25e-008 
    WL = -9.271e-016 
    WLC =      0 
    WLN =   0.86 
    WW = 2.7e-016 
    WWC =      0 
    WWN =      1 
    WWL = 1.696e-022 
    WWLC =      0 
    WMIN = 1.08e-007 
    WMAX = 0.0001 
    NOIA = 4.7e+041 
    NOIB = 4.293e+025 
    NOIC = 5.963e+008 
    EM = 4.1e+007 
    EF =   0.98 
    AF =      1 
    KF =      0 
    TRS =      0 
    TRD =      0 
    TEMPMOD  =      0 
    LAMBDA   =      0 
    VTL      = 2e+005 m/s
    LC       = 5e-009 
    XN       =      3 
    LLAMBDA  =      0 
    LVTL     =      0 
    LXN      =      0 
    WLAMBDA  =      0 
    WVTL     =      0 
    WXN      =      0 
    PLAMBDA  =      0 
    PVTL     =      0 
    PXN      =      0 
    RNOIA    =  0.577 
    RNOIB    = 0.5164 
    SAREF(SA0) = 2.61e-007 m
    SBREF(SB0) = 2.61e-007 m
    WLOD     =      0 m
    KU0      = -1e-008 1/m
    KVSAT    =      1 
    KVTH0    = 1.2e-009 m
    TKU0     =      0 
    LLODKU0  =      1 
    WLODKU0  =      1 
    LLODVTH  =      1 
    WLODVTH  =      1 
    LKU0     = 1e-006 
    WKU0     = 2e-006 
    PKU0     =      0 
    LKVTH0   = 3e-008 
    WKVTH0   = 9e-008 
    PKVTH0   =      0 
    STK2     =      0 
    LODK2    =      1 
    STETA0   = -6e-010 
    LODETA0  =      1 
    LXRCRG1  =      0 
    WXRCRG1  =      0 
    PXRCRG1  =      0 
    LXRCRG2  =      0 
    WXRCRG2  =      0 
    PXRCRG2  =      0 
 

    *** UCB's BSIM4.4.0 new diode model is activated. ***
    *** UCB's Diode Model Parameters ***

    JTSS         =      0 
    JTSSWS       =      0 
    JTSSWGS      = 1e-007 
    JTSD         =      0 
    JTSSWD       =      0 
    JTSSWGD      = 1e-007 
    NJTS         =     20 
    NJTSSW       =     20 
    NJTSSWG      =     20 
    XTSS         =   0.02 
    XTSSWS       =   0.02 
    XTSSWGS      =   0.02 
    XTSD         =   0.02 
    XTSSWD       =   0.02 
    XTSSWGD      =   0.02 
    TNJTS        =      0 
    TNJTSSW      =      0 
    TNJTSSWG     =      0 
    VFBSDOFF     =      0 
    LVFBSDOFF    =      0 
    WVFBSDOFF    =      0 
    PVFBSDOFF    =      0 
    LINTNOI      =      0 
    VTSS         =     10 
    VTSD         =     10 
    VTSSWS       =     10 
    VTSSWD       =     10 
    VTSSWGS      =     10 
    VTSSWGD      =     10 
    TTDIOMOD     =      1 
 

    *** UCB's BSIM4.5.0 new model is activated. ***
    UD         = 1e+014 
    UD1        =      0 
    UP         =      0 
    LP         = 1e-008 
    TVOFF      =  0.003 
    TVFBSDOFF  =      0 
    RBPS0      =     50 
    RBPSL      =      0 
    RBPSW      =      0 
    RBPSNF     =      0 
    RBPD0      =     50 
    RBPDL      =      0 
    RBPDW      =      0 
    RBPDNF     =      0 
    RBPBX0     =    100 
    RBPBXL     =      0 
    RBPBXW     =      0 
    RBPBXNF    =      0 
    RBPBY0     =    100 
    RBPBYL     =      0 
    RBPBYW     =      0 
    RBPBYNF    =      0 
    RBSBX0     =    100 
    RBSBY0     =    100 
    RBDBX0     =    100 
    RBDBY0     =    100 
    RBSDBXL    =      0 
    RBSDBXW    =      0 
    RBSDBXNF   =      0 
    RBSDBYL    =      0 
    RBSDBYW    =      0 
    RBSDBYNF   =      0 
    LUD        =      0 
    LUD1       =      0 
    LUP        =      0 
    LLP        =      0 
    LTVOFF     = -3e-011 
    LTVFBSDOFF =      0 
    WUD        =      0 
    WUD1       =      0 
    WUP        =      0 
    WLP        =      0 
    WTVOFF     =      0 
    WTVFBSDOFF =      0 
    PUD        =      0 
    PUD1       =      0 
    PUP        =      0 
    PLP        =      0 
    PTVOFF     =      0 
    PTVFBSDOFF =      0 
    WEB        =      1 
    WEC        =      1 
    KVTH0WE    = 0.0012 
    K2WE       =      0 
    KU0WE      = -0.0003 
    SCREF      = 1e-006 
    WPEMOD     =      1 
    LKVTH0WE   =      0 
    LK2WE      =      0 
    LKU0WE     =      0 
    WKVTH0WE   = -1.2e-010 
    WK2WE      =      0 
    WKU0WE     =      0 
    PKVTH0WE   =      0 
    PK2WE      =      0 
    PKU0WE     =      0 
 

 
Model Name: p11ll_ckt  

 BSIM4 Model (Level 54)

    MOBMOD = 0
    BINUNIT = 2
    PARAMCHK = 1
    CAPMOD = 2
    DIOMOD = 2
    RDSMOD = 1
    TRNQSMOD = 0
    ACNQSMOD = 0
    RBODYMOD = 0
    RGATEMOD = 0
    PERMOD = 1
    GEOMOD = 0
    RGEOMOD = 1
    FNOIMOD = 1
    TNOIMOD = 0
    IGCMOD = 2
    IGBMOD = 1
    STIMOD = 1
    VBFWDMOD = 0
    VERSION =    4.5 
    TOXREF = 2.7e-009 
    TOXE = 2.7e-009 
    TOXP = 2.49e-009 
    TOXM = 2.7e-009 
    DTOX = 2.1e-010 
    EPSROX =    3.9 
    CDSC = 0.00024 
    CDSCB =      0 
    CDSCD =      0 
    CIT = 1e-007 
    NFACTOR =      1 
    XJ = 8.6e-008 
    VSAT = 1.469e+005 
    A0 =    2.3 
    AGS = 0.3226 
    A1 =      0 
    A2 =      1 
    AT = 3.3e+004 
    KETA = -0.002 
    NSUB = 6e+016 
    NDEP = 1e+017 
    NSD = 1e+020 
    NGATE = 8e+020 
    GAMMA1 =      0 
    GAMMA2 =      0 
    VBX =      0 
    VBM =     -3 
    XT = 1.55e-007 
    K1 = 0.2905 
    KT1 = -0.2942 
    KT1L =      0 
    KT2 = -0.0285 
    K2 = -0.03273 
    K3 =    0.5 
    K3B = 0.9348 
    LPE0 = 1.073e-008 
    LPEB = 7.08e-009 
    DVTP0 = 1.295e-006 
    DVTP1 =      0 
    W0 = 9e-006 
    DVT0 = 0.6192 
    DVT1 =    0.7 
    DVT2 = -0.002 
    DVT0W =      0 
    DVT1W = 5.3e+006 
    DVT2W = -0.032 
    DROUT =   0.56 
    DSUB =   0.56 
    VTH0 = -0.3662 
    EU =      1 
    UA = -1.8e-010 
    UA1 = 1.12e-009 
    UB = 1.052e-018 
    UB1 = -2.442e-018 
    UC = -6e-012 
    UC1 = -5.6e-011 
    U0 = 0.008965 
    UTE =   -1.5 
    VOFF = -0.128 
    VOFFL =      0 
    MINV =  -0.28 
    FPROUT = 0.0001 
    PDITS = 0.4745 
    PDITSD =    0.9 
    PDITSL = 1e+005 
    DELTA =   0.01 
    RDSW =    200 
    RDSWMIN =      0 
    RDWMIN =      0 
    RSWMIN =      0 
    RDW =   70.8 
    RSW =   70.8 
    PRWG =      0 
    PRWB =      0 
    PRT =      0 
    ETA0 = 0.08006 
    ETAB = -0.0103 
    PCLM =    0.3 
    PDIBLC1 = 7.28e-008 
    PDIBLC2 = 0.0035 
    PDIBLCB =      0 
    PSCBE1 = 4.24e+008 
    PSCBE2 = 1e-005 
    PVAG =      1 
    WR =      1 
    DWG =      0 
    DWB =      0 
    XW = 1.8e-008 
    XWREF = 1.8e-008 
    XL = 5.1e-009 
    XLREF = 5.1e-009 
    B0 =      0 
    B1 =      0 
    ALPHA0 = 5.791e-007 
    ALPHA1 =  2.087 
    AGIDL = 1e-010 
    BGIDL = 1.425e+009 
    CGIDL =      1 
    PHIN =   0.06 
    EGIDL =   0.22 
    AIGC = 0.007371 
    BIGC = 0.00078 
    CIGC = 0.0003 
    AIGSD = 0.00605 
    BIGSD = 0.0002164 
    CIGSD = 0.0048 
    AIGBACC = 0.01236 
    BIGBACC = 0.006079 
    CIGBACC =  0.063 
    AIGBINV =   0.35 
    BIGBINV =   0.03 
    CIGBINV =  0.006 
    NIGC =    1.5 
    NIGBINV =      3 
    NIGBACC =      1 
    NTOX =      1 
    EIGBINV =      1 
    PIGCD =    2.8 
    POXEDGE =      1 
    XRCRG1 =     12 
    TNOIA =    1.5 
    TNOIB =    3.5 
    NTNOI =      1 
    XRCRG2 =      1 
    BETA0 =   17.8 
    IJTHDFWD =    0.1 
    IJTHSFWD =    0.1 
    IJTHDREV =    0.1 
    IJTHSREV =    0.1 
    XJBVD =      1 
    XJBVS =      1 
    BVD =   8.55 
    BVS =   8.55 
    VFB =     -1 
    GBMIN = 1e-012 
    RBDB =     50 
    RBPB =     50 
    RBSB =     50 
    RBPS =     50 
    RBPD =     50 
    CGSL = 7e-011 
    CGDL = 7e-011 
    CKAPPAS =    0.6 
    CKAPPAD =    0.6 
    CF = 6.6e-011 
    CLC =      0 
    CLE =    0.6 
    DWC =      0 
    DLC = 8.28e-009 
    DLCIG = 4e-009 
    DWJ =      0 
    VFBCV =     -1 
    ACDE = 0.4808 
    MOIN =  10.44 
    NOFF =  1.687 
    VOFFCV = -0.04669 
    DMCG = 6.3e-008 
    DMCI = 1.98e-007 
    DMDG =      0 
    DMCGT =      0 
    XGW =      0 
    XGL =      0 
    RSHG =    0.1 
    NGCON =      1 
    TCJ = 0.0007072 
    TPB = 0.001307 
    TCJSW = 0.0008212 
    TPBSW = 0.00108 
    TCJSWG = 0.0022 
    TPBSWG = 1e-005 
    SK0 =      0 
    SK1 =      0 
    SK2 =      0 
    SL = 2e-006 
    SW = 2e-006 
    K =      0 
    LCIT = 2.25e-010 
    LNFACTOR = 2e-008 
    LVSAT = -0.00235 
    LAT = -0.0003042 
    LA0 = -9e-009 
    LAGS = 5.897e-007 
    LKETA = 1e-009 
    LKT1 = -6.746e-009 
    LK2 = 2.2e-009 
    LLPE0 = 4.3e-015 
    LDVT0 = 1.552e-008 
    LVTH0 = 3.314e-009 
    LUA = -3.543e-017 
    LUA1 = 8.387e-017 
    LUB = 1.165e-025 
    LUB1 = -1.382e-025 
    LUC = 7e-018 
    LU0 = 8.418e-011 
    LVOFF = -4.124e-009 
    LMINV = -9.6e-010 
    LDELTA = 2e-009 
    LETA0 = -1.658e-009 
    LETAB = -1.5e-010 
    LPCLM = -1.476e-009 
    LPDIBLC2 = 1.51e-009 
    LALPHA0 = -9.009e-016 
    LALPHA1 = -6.23e-007 
    LBETA0 = -1.2e-007 
    LNOFF = 2e-008 
    LVOFFCV = -2.928e-009 
    WA0 = -2e-008 
    WAGS = 3.8e-008 
    WKETA = 5e-009 
    WK2 = -9e-010 
    WK3 = -8e-008 
    WDVTP0 = 1.2e-014 
    WDVT0 = 6e-009 
    WVTH0 = 5.256e-009 
    WUB = 1.456e-026 
    WUB1 = 5e-027 
    WU0 = 2.413e-010 
    WVOFF = 4e-010 
    PCIT = -9e-018 
    PNFACTOR = 4e-015 
    PVSAT = -4.8e-011 
    PAT = -5.842e-011 
    PA0 = 2e-014 
    PAGS = -5e-014 
    PKETA = -4e-017 
    PKT1 = 2e-017 
    PK2 = 8.143e-017 
    PPE0 = -8.16e-024 
    PVTH0 = -4.879e-016 
    PUA = -5.246e-024 
    PUA1 = 1.681e-023 
    PUB = 1.431e-032 
    PUB1 = -1.782e-032 
    PUC = 8e-025 
    PUC1 = -2e-024 
    PU0 = 1.501e-017 
    PVOFF = 2.131e-017 
    PMINV = -2.701e-015 
    PETA0 = -5e-018 
    PPCLM = -1.5e-016 
    PPDIBLC2 = -9e-017 
    PALPHA0 = 3e-022 
    PALPHA1 = 5.612e-015 
    PBETA0 = 1e-014 
    TNOM =  298.1 
    CGSO = 5.4e-011 
    CGDO = 5.4e-011 
    CGBO =      0 
    XPART =      1 
    RSH =     10 
    JSS = 4.379e-008 
    JSWS = 1.2e-013 
    JSWGS = 1.53e-012 
    PBS =   0.79 
    MJS = 0.3586 
    PBSWS = 0.2783 
    MJSWS = 0.1224 
    CJS = 0.00141 
    CJSWS = 5.496e-011 
    NJS = 0.9993 
    PBSWGS =    0.4 
    MJSWGS =    0.9 
    CJSWGS = 2.12e-010 
    XTIS =  6.685 
    JSD = 4.379e-008 
    JSWD = 1.2e-013 
    JSWGD = 1.53e-012 
    PBD =   0.79 
    MJD = 0.3586 
    PBSWD = 0.2783 
    MJSWD = 0.1224 
    CJD = 0.00141 
    CJSWD = 5.496e-011 
    NJD = 0.9993 
    PBSWGD =    0.4 
    MJSWGD =    0.9 
    CJSWGD = 2.12e-010 
    XTID =  6.685 
    LMLT =      1 
    WMLT =      1 
    LINT = -1.013e-008 
    LL = 2.169e-016 
    LLC =      0 
    LLN =   1.05 
    LW =      0 
    LWC =      0 
    LWN =      1 
    LWL =      0 
    LWLC =      0 
    LMIN = 3.6e-008 
    LMAX = 0.0001 
    WINT = -2.291e-008 
    WL =      0 
    WLC =      0 
    WLN =      1 
    WW = 3.093e-015 
    WWC =      0 
    WWN =   0.98 
    WWL = -6e-023 
    WWLC =      0 
    WMIN = 1.08e-007 
    WMAX = 0.0001 
    NOIA = 4e+042 
    NOIB = 1.01e+025 
    NOIC = 1e+010 
    EM = 6e+007 
    EF =    1.1 
    AF =      1 
    KF =      0 
    TRS =      0 
    TRD =      0 
    TEMPMOD  =      0 
    LAMBDA   =      0 
    VTL      = 2e+005 m/s
    LC       = 5e-009 
    XN       =      3 
    LLAMBDA  =      0 
    LVTL     =      0 
    LXN      =      0 
    WLAMBDA  =      0 
    WVTL     =      0 
    WXN      =      0 
    PLAMBDA  =      0 
    PVTL     =      0 
    PXN      =      0 
    RNOIA    =  0.577 
    RNOIB    = 0.5164 
    SAREF(SA0) = 2.61e-007 m
    SBREF(SB0) = 2.61e-007 m
    WLOD     =      0 m
    KU0      = 1.25e-009 1/m
    KVSAT    =      1 
    KVTH0    = -7.5e-010 m
    TKU0     =      0 
    LLODKU0  =      1 
    WLODKU0  =      1 
    LLODVTH  =      1 
    WLODVTH  =      1 
    LKU0     = 1e-008 
    WKU0     =      0 
    PKU0     =      0 
    LKVTH0   = -2.784e-008 
    WKVTH0   =      0 
    PKVTH0   = 2e-016 
    STK2     =      0 
    LODK2    =      1 
    STETA0   =      0 
    LODETA0  =      1 
    LXRCRG1  =      0 
    WXRCRG1  =      0 
    PXRCRG1  =      0 
    LXRCRG2  =      0 
    WXRCRG2  =      0 
    PXRCRG2  =      0 
 

    *** UCB's BSIM4.4.0 new diode model is activated. ***
    *** UCB's Diode Model Parameters ***

    JTSS         =      0 
    JTSSWS       =      0 
    JTSSWGS      = 2e-008 
    JTSD         =      0 
    JTSSWD       =      0 
    JTSSWGD      = 2e-008 
    NJTS         =     20 
    NJTSSW       =     20 
    NJTSSWG      =     20 
    XTSS         =   0.02 
    XTSSWS       =   0.02 
    XTSSWGS      =   0.02 
    XTSD         =   0.02 
    XTSSWD       =   0.02 
    XTSSWGD      =   0.02 
    TNJTS        =      0 
    TNJTSSW      =      0 
    TNJTSSWG     =      0 
    VFBSDOFF     =      0 
    LVFBSDOFF    =      0 
    WVFBSDOFF    =      0 
    PVFBSDOFF    =      0 
    LINTNOI      = -1e-008 
    VTSS         =     10 
    VTSD         =     10 
    VTSSWS       =     10 
    VTSSWD       =     10 
    VTSSWGS      =     10 
    VTSSWGD      =     10 
    TTDIOMOD     =      1 
 

    *** UCB's BSIM4.5.0 new model is activated. ***
    UD         = 1e+014 
    UD1        =      0 
    UP         =      0 
    LP         = 1e-008 
    TVOFF      =      0 
    TVFBSDOFF  =      0 
    RBPS0      =     50 
    RBPSL      =      0 
    RBPSW      =      0 
    RBPSNF     =      0 
    RBPD0      =     50 
    RBPDL      =      0 
    RBPDW      =      0 
    RBPDNF     =      0 
    RBPBX0     =    100 
    RBPBXL     =      0 
    RBPBXW     =      0 
    RBPBXNF    =      0 
    RBPBY0     =    100 
    RBPBYL     =      0 
    RBPBYW     =      0 
    RBPBYNF    =      0 
    RBSBX0     =    100 
    RBSBY0     =    100 
    RBDBX0     =    100 
    RBDBY0     =    100 
    RBSDBXL    =      0 
    RBSDBXW    =      0 
    RBSDBXNF   =      0 
    RBSDBYL    =      0 
    RBSDBYW    =      0 
    RBSDBYNF   =      0 
    LUD        =      0 
    LUD1       =      0 
    LUP        =      0 
    LLP        =      0 
    LTVOFF     =      0 
    LTVFBSDOFF =      0 
    WUD        =      0 
    WUD1       =      0 
    WUP        =      0 
    WLP        =      0 
    WTVOFF     =      0 
    WTVFBSDOFF =      0 
    PUD        =      0 
    PUD1       =      0 
    PUP        =      0 
    PLP        =      0 
    PTVOFF     =      0 
    PTVFBSDOFF =      0 
    WEB        =      1 
    WEC        =      1 
    KVTH0WE    = -0.004 
    K2WE       =      0 
    KU0WE      = -0.001 
    SCREF      = 1e-006 
    WPEMOD     =      1 
    LKVTH0WE   = 1.092e-010 
    LK2WE      =      0 
    LKU0WE     =      0 
    WKVTH0WE   = 5e-010 
    WK2WE      =      0 
    WKU0WE     = 1.2e-010 
    PKVTH0WE   = -1.3e-017 
    PK2WE      =      0 
    PKU0WE     = -5.4e-018 
 

 
Model Name: n11ll_ckt  

 BSIM4 Model (Level 54)

    MOBMOD = 0
    BINUNIT = 2
    PARAMCHK = 1
    CAPMOD = 2
    DIOMOD = 2
    RDSMOD = 1
    TRNQSMOD = 0
    ACNQSMOD = 0
    RBODYMOD = 0
    RGATEMOD = 0
    PERMOD = 1
    GEOMOD = 0
    RGEOMOD = 1
    FNOIMOD = 1
    TNOIMOD = 0
    IGCMOD = 2
    IGBMOD = 1
    STIMOD = 1
    VBFWDMOD = 0
    VERSION =    4.5 
    TOXREF = 2.37e-009 
    TOXE = 2.37e-009 
    TOXP = 2.262e-009 
    TOXM = 2.37e-009 
    DTOX = 1.08e-010 
    EPSROX =    3.9 
    CDSC = 0.002458 
    CDSCB = 5e-005 
    CDSCD = 0.001018 
    CIT = 0.00175 
    NFACTOR =    1.3 
    XJ = 9.7e-008 
    VSAT = 1.092e+005 
    A0 =    2.3 
    AGS = 0.7794 
    A1 =      0 
    A2 =      1 
    AT = 2.5e+004 
    KETA = -0.0085 
    NSUB = 6e+016 
    NDEP = 1.3e+017 
    NSD = 1e+020 
    NGATE = 2e+021 
    GAMMA1 =      0 
    GAMMA2 =      0 
    VBX =      0 
    VBM =     -3 
    XT = 1.55e-007 
    K1 = 0.3103 
    KT1 = -0.244 
    KT1L =      0 
    KT2 =  -0.04 
    K2 = -0.00895 
    K3 =    1.5 
    K3B =   5.64 
    LPE0 =      0 
    LPEB =      0 
    DVTP0 = 9.536e-006 
    DVTP1 =      0 
    W0 =      0 
    DVT0 =      0 
    DVT1 =  2.067 
    DVT2 =      0 
    DVT0W =      0 
    DVT1W = 5.724e+006 
    DVT2W = -0.016 
    DROUT =   0.56 
    DSUB =   0.56 
    VTH0 =  0.329 
    EU =   1.67 
    UA = -9.9e-010 
    UA1 = 1.612e-009 
    UB = 1.8e-018 
    UB1 = -1.46e-018 
    UC = 1.049e-010 
    UC1 = 5.2e-011 
    U0 =  0.026 
    UTE =  -1.03 
    VOFF = -0.154 
    VOFFL = -1e-009 
    MINV = -0.3522 
    FPROUT =      0 
    PDITS =  1.123 
    PDITSD = 0.6661 
    PDITSL = 4.357e+006 
    DELTA = 0.01076 
    RDSW =    200 
    RDSWMIN =      0 
    RDWMIN =      0 
    RSWMIN =      0 
    RDW =     24 
    RSW =     24 
    PRWG =      1 
    PRWB =      0 
    PRT =      0 
    ETA0 =  0.003 
    ETAB = -0.1502 
    PCLM = 0.01243 
    PDIBLC1 =      0 
    PDIBLC2 = 0.01303 
    PDIBLCB =      0 
    PSCBE1 = 6.24e+008 
    PSCBE2 = 1e-005 
    PVAG =      0 
    WR =      1 
    DWG =      0 
    DWB =      0 
    XW = 1.7e-008 
    XWREF = 1.7e-008 
    XL = 5.8e-009 
    XLREF = 5.8e-009 
    B0 = 2.16e-008 
    B1 =      0 
    ALPHA0 = 7.286e-008 
    ALPHA1 =  1.272 
    AGIDL = 4.3e-011 
    BGIDL = 8.7e+008 
    CGIDL =  15.66 
    PHIN = 0.1444 
    EGIDL =      0 
    AIGC = 0.01214 
    BIGC = 0.00167 
    CIGC = 0.03508 
    AIGSD = 0.01079 
    BIGSD = 0.00055 
    CIGSD =  0.001 
    AIGBACC = 0.02487 
    BIGBACC = 0.00171 
    CIGBACC =  0.075 
    AIGBINV = 0.0111 
    BIGBINV = 0.000949 
    CIGBINV =  0.006 
    NIGC =   2.43 
    NIGBINV =      3 
    NIGBACC =      1 
    NTOX =      1 
    EIGBINV =    1.1 
    PIGCD =  3.616 
    POXEDGE =      1 
    XRCRG1 =     12 
    TNOIA =    1.5 
    TNOIB =    3.5 
    NTNOI =      1 
    XRCRG2 =      1 
    BETA0 =  13.33 
    IJTHDFWD =    0.1 
    IJTHSFWD =    0.1 
    IJTHDREV =    0.1 
    IJTHSREV =    0.1 
    XJBVD =      1 
    XJBVS =      1 
    BVD =    9.3 
    BVS =    9.3 
    VFB =     -1 
    GBMIN = 1e-012 
    RBDB =     50 
    RBPB =     50 
    RBSB =     50 
    RBPS =     50 
    RBPD =     50 
    CGSL = 5.7e-011 
    CGDL = 5.7e-011 
    CKAPPAS =    0.6 
    CKAPPAD =    0.6 
    CF = 7.715e-011 
    CLC = 1e-007 
    CLE =    0.6 
    DWC =      0 
    DLC = 7.62e-009 
    DLCIG = 3.5e-010 
    DWJ =      0 
    VFBCV =     -1 
    ACDE = 0.2478 
    MOIN =    5.4 
    NOFF =  2.088 
    VOFFCV = -0.1225 
    DMCG = 6.3e-008 
    DMCI = 1.98e-007 
    DMDG =      0 
    DMCGT =      0 
    XGW =      0 
    XGL =      0 
    RSHG =    0.1 
    NGCON =      1 
    TCJ = 0.0005575 
    TPB = 0.0007973 
    TCJSW = 0.009706 
    TPBSW = 0.001692 
    TCJSWG = 0.0005678 
    TPBSWG = 0.0001624 
    SK0 =      0 
    SK1 =      0 
    SK2 =      0 
    SL = 2e-006 
    SW = 2e-006 
    K =      0 
    LCIT = 2.149e-010 
    LVSAT = 0.0007432 
    LA0 = 7.943e-008 
    LAGS = 3.914e-007 
    LKETA = 3.036e-009 
    LKT1 = -3.16e-009 
    LK2 = 9.739e-010 
    LLPE0 = 3.681e-015 
    LDVT0 = 4.541e-007 
    LDVT1 = -6.731e-008 
    LVTH0 = -7.692e-010 
    LUA = 1.56e-017 
    LUB = 1.14e-025 
    LUB1 = 5e-026 
    LUC = 1.121e-017 
    LUC1 = 1.2e-017 
    LU0 = 1.72e-009 
    LUTE = 3.98e-008 
    LVOFF = -3.386e-009 
    LMINV = 6.117e-009 
    LDELTA = 3.229e-009 
    LETA0 = 7.13e-009 
    LETAB = 5.31e-009 
    LPDIBLC2 = -5.591e-010 
    LPDITS = -4.334e-008 
    LALPHA1 = -6.1e-008 
    LBETA0 = -1e-008 
    LAIGC = -4.9e-011 
    LCIGC = 3.9e-009 
    LPIGCD = 3.3e-007 
    LNOFF = 4.7e-008 
    LVOFFCV = -1.9e-009 
    WCIT = 7.4e-011 
    WA0 = -5.024e-007 
    WAGS = 4.352e-008 
    WKETA = -9.53e-009 
    WKT1 = -5.4e-009 
    WK2 = 8.796e-009 
    WK3 = 1.1e-007 
    WDVT1 = -1.591e-008 
    WVTH0 = -1.044e-008 
    WUA = 6.315e-017 
    WUB = -5e-027 
    WUC = 1e-018 
    WU0 = 4.939e-010 
    WUTE = -1.8e-008 
    WBETA0 = -1.3e-008 
    WAIGC = 3.18e-011 
    PCIT = -9.402e-018 
    PVSAT = -9.395e-011 
    PA0 = 6.304e-014 
    PAGS = -7.124e-014 
    PKETA = 1.18e-015 
    PKT1 = 7e-017 
    PK2 = 1.209e-016 
    PK3 = 5.259e-015 
    PPE0 = 6.35e-022 
    PVTH0 = -9.382e-016 
    PUA = -1.7e-024 
    PUB = 7.1e-034 
    PUC = 4e-025 
    PU0 = -9.398e-017 
    PUTE = 6.94e-016 
    PVOFF = 1.498e-016 
    PETA0 = -6.785e-017 
    PETAB = -6.4e-017 
    PPDIBLC2 = 1.4e-016 
    TNOM =  298.1 
    CGSO = 6.73e-011 
    CGDO = 6.73e-011 
    CGBO =      0 
    XPART =      1 
    RSH =     18 
    JSS = 1.713e-008 
    JSWS = 2.568e-014 
    JSWGS = 5.96e-013 
    PBS = 0.4588 
    MJS = 0.2584 
    PBSWS = 0.9848 
    MJSWS = 0.2245 
    CJS = 0.001473 
    CJSWS = 5.148e-011 
    NJS = 0.9293 
    PBSWGS =   0.43 
    MJSWGS =   0.97 
    CJSWGS = 2.8e-010 
    XTIS =   3.38 
    JSD = 1.713e-008 
    JSWD = 2.568e-014 
    JSWGD = 5.96e-013 
    PBD = 0.4588 
    MJD = 0.2584 
    PBSWD = 0.9848 
    MJSWD = 0.2245 
    CJD = 0.001473 
    CJSWD = 5.148e-011 
    NJD = 0.9293 
    PBSWGD =   0.43 
    MJSWGD =   0.97 
    CJSWGD = 2.8e-010 
    XTID =   3.38 
    LMLT =      1 
    WMLT =      1 
    LINT = 8.8e-010 
    LL = -2.846e-016 
    LLC =      0 
    LLN =      1 
    LW = -9.6e-016 
    LWC =      0 
    LWN =   1.02 
    LWL = 3.013e-023 
    LWLC =      0 
    LMIN = 3.6e-008 
    LMAX = 0.0001 
    WINT = -2.25e-008 
    WL = -9.271e-016 
    WLC =      0 
    WLN =   0.86 
    WW = 2.7e-016 
    WWC =      0 
    WWN =      1 
    WWL = 1.696e-022 
    WWLC =      0 
    WMIN = 1.08e-007 
    WMAX = 0.0001 
    NOIA = 4.7e+041 
    NOIB = 4.293e+025 
    NOIC = 5.963e+008 
    EM = 4.1e+007 
    EF =   0.98 
    AF =      1 
    KF =      0 
    TRS =      0 
    TRD =      0 
    TEMPMOD  =      0 
    LAMBDA   =      0 
    VTL      = 2e+005 m/s
    LC       = 5e-009 
    XN       =      3 
    LLAMBDA  =      0 
    LVTL     =      0 
    LXN      =      0 
    WLAMBDA  =      0 
    WVTL     =      0 
    WXN      =      0 
    PLAMBDA  =      0 
    PVTL     =      0 
    PXN      =      0 
    RNOIA    =  0.577 
    RNOIB    = 0.5164 
    SAREF(SA0) = 2.61e-007 m
    SBREF(SB0) = 2.61e-007 m
    WLOD     =      0 m
    KU0      = -1e-008 1/m
    KVSAT    =      1 
    KVTH0    = 1.2e-009 m
    TKU0     =      0 
    LLODKU0  =      1 
    WLODKU0  =      1 
    LLODVTH  =      1 
    WLODVTH  =      1 
    LKU0     = 1e-006 
    WKU0     = 2e-006 
    PKU0     =      0 
    LKVTH0   = 3e-008 
    WKVTH0   = 9e-008 
    PKVTH0   =      0 
    STK2     =      0 
    LODK2    =      1 
    STETA0   = -6e-010 
    LODETA0  =      1 
    LXRCRG1  =      0 
    WXRCRG1  =      0 
    PXRCRG1  =      0 
    LXRCRG2  =      0 
    WXRCRG2  =      0 
    PXRCRG2  =      0 
 

    *** UCB's BSIM4.4.0 new diode model is activated. ***
    *** UCB's Diode Model Parameters ***

    JTSS         =      0 
    JTSSWS       =      0 
    JTSSWGS      = 1e-007 
    JTSD         =      0 
    JTSSWD       =      0 
    JTSSWGD      = 1e-007 
    NJTS         =     20 
    NJTSSW       =     20 
    NJTSSWG      =     20 
    XTSS         =   0.02 
    XTSSWS       =   0.02 
    XTSSWGS      =   0.02 
    XTSD         =   0.02 
    XTSSWD       =   0.02 
    XTSSWGD      =   0.02 
    TNJTS        =      0 
    TNJTSSW      =      0 
    TNJTSSWG     =      0 
    VFBSDOFF     =      0 
    LVFBSDOFF    =      0 
    WVFBSDOFF    =      0 
    PVFBSDOFF    =      0 
    LINTNOI      =      0 
    VTSS         =     10 
    VTSD         =     10 
    VTSSWS       =     10 
    VTSSWD       =     10 
    VTSSWGS      =     10 
    VTSSWGD      =     10 
    TTDIOMOD     =      1 
 

    *** UCB's BSIM4.5.0 new model is activated. ***
    UD         = 1e+014 
    UD1        =      0 
    UP         =      0 
    LP         = 1e-008 
    TVOFF      =  0.003 
    TVFBSDOFF  =      0 
    RBPS0      =     50 
    RBPSL      =      0 
    RBPSW      =      0 
    RBPSNF     =      0 
    RBPD0      =     50 
    RBPDL      =      0 
    RBPDW      =      0 
    RBPDNF     =      0 
    RBPBX0     =    100 
    RBPBXL     =      0 
    RBPBXW     =      0 
    RBPBXNF    =      0 
    RBPBY0     =    100 
    RBPBYL     =      0 
    RBPBYW     =      0 
    RBPBYNF    =      0 
    RBSBX0     =    100 
    RBSBY0     =    100 
    RBDBX0     =    100 
    RBDBY0     =    100 
    RBSDBXL    =      0 
    RBSDBXW    =      0 
    RBSDBXNF   =      0 
    RBSDBYL    =      0 
    RBSDBYW    =      0 
    RBSDBYNF   =      0 
    LUD        =      0 
    LUD1       =      0 
    LUP        =      0 
    LLP        =      0 
    LTVOFF     = -3e-011 
    LTVFBSDOFF =      0 
    WUD        =      0 
    WUD1       =      0 
    WUP        =      0 
    WLP        =      0 
    WTVOFF     =      0 
    WTVFBSDOFF =      0 
    PUD        =      0 
    PUD1       =      0 
    PUP        =      0 
    PLP        =      0 
    PTVOFF     =      0 
    PTVFBSDOFF =      0 
    WEB        =      1 
    WEC        =      1 
    KVTH0WE    = 0.0012 
    K2WE       =      0 
    KU0WE      = -0.0003 
    SCREF      = 1e-006 
    WPEMOD     =      1 
    LKVTH0WE   =      0 
    LK2WE      =      0 
    LKU0WE     =      0 
    WKVTH0WE   = -1.2e-010 
    WK2WE      =      0 
    WKU0WE     =      0 
    PKVTH0WE   =      0 
    PK2WE      =      0 
    PKU0WE     =      0 
 

  **warning** (d:\vlsi_homework\final\24t dff\24t_dff.sp:42) dc voltage reset to initial transient source value              in source        0:vin1                new dc=  0.0000D+00
 
      
 **diagnostic** set option symb=1 internally to help for convergence.
 *****************************************************************
 ******  option summary
 ******
 runlvl  = 6         bypass  = 2         
  Opening plot unit= 79
 file=d:\vlsi_homework\final\24t dff\24t_dff.pa0                               

1****** HSPICE -- C-2009.09 32-BIT (Aug 24 2009) winnt ******                   
 ******  
 24t-dff

  ******  operating point information tnom=  25.000 temp= 125.000 *****
 ***** operating point status is all       simulation time is     0.     
    node    =voltage      node    =voltage      node    =voltage

 +0:cki     =  10.4909u 0:ckn     =   1.1000  0:clk     =   0.     
 +0:in      =   0.      0:out     =   5.1823n 0:vdd     =   1.1000 
 +0:vnw     =   1.1000  0:vpw     =   0.      0:vss     =   0.     


 ****  voltage sources

 subckt                                                                    
 element  0:vvdd     0:vvpw     0:vvnw     0:vvss     0:vin1     0:vin2    
  volts      1.1000     0.         1.1000     0.         0.         0.     
  current   -3.7647n  363.6564f -964.5238f    3.7602n    1.2607p    3.7959p
  power      4.1411n    0.         1.0610p    0.         0.         0.     

     total voltage source power dissipation=    4.1422n       watts




 **** mosfets


 subckt   xclk1.xp1  xclk1.xn1  xclk2.xp1  xclk2.xn1  xtra1.xp2  xtra1.xn2 
 element  4:m1       5:m1       6:m1       7:m1       8:m1       9:m1      
 model    4:p11ll_ck 5:n11ll_ck 6:p11ll_ck 7:n11ll_ck 8:p11ll_ck 9:n11ll_ck
 region       Linear     Cutoff     Cutoff     Linear     Cutoff     Linear
  id         1.3614n   -1.3546n    2.4027n   -2.4046n   -1.5196a   -1.8979p
  ibs       84.8085a   -1.2416p    1.4386p  -30.7624a    1.3945p -2.136e-20
  ibd        4.9264a -9.418e-19    8.6905a -8.547e-19    1.3945p -1.072e-21
  vgs       -1.1000    -1.1000     1.1000     1.1000    10.4858u    1.1000 
  vds        8.9375u   -1.1000     1.1000   -10.4909u   -5.1823n   -5.1823n
  vbs        8.9375u   -1.1000     1.1000   -10.4909u    1.1000    -5.1823n
  vth     -520.1252m  472.1432m -446.4461m  537.1153m -624.2143m  548.9842m
  vdsat   -393.7966m   47.7634m  -55.8630m  300.8239m  -56.0680m  296.6551m
  vod     -579.8658m   -1.5721     1.5464   562.8653m  624.2248m  551.0069m
  beta     346.2047u  892.1003u  545.3569u  528.5166u  407.1580u  869.5589u
  gam eff  290.4900m  310.3100m  290.4900m  310.3100m  290.4900m  310.3100m
  gm         1.6577n   26.4303n   43.8202n    3.0100n   28.8553a    2.4510p
  gds      171.1009u    2.2836n    4.7962n  242.2961u  293.2253p  387.2825u
  gmb      272.1578p    2.0291n    3.4404n  486.3076p    2.6844a  393.8073f
  cdtot    181.2453a   89.8371a  129.6187a  148.4192a   73.7410a  225.9040a
  cgtot    133.5356a   43.4748a   72.8924a   80.5403a   66.2957a  127.8246a
  cstot    180.1014a   55.5127a   74.7059a  198.5144a   72.5684a  301.6519a
  cbtot    190.6787a  110.9160a  145.6163a  140.8686a   85.1832a  207.0672a
  cgs       64.5356a   17.6103a   28.6491a   37.1913a   30.1620a   58.6318a
  cgd       68.6800a   21.2411a   36.9744a   43.5456a   32.2075a   69.4332a




          ***** job concluded
1****** HSPICE -- C-2009.09 32-BIT (Aug 24 2009) winnt ******                   
 ******  
 24t-dff

  ******  job statistics summary tnom=  25.000 temp= 125.000 *****

  ******  HSPICE Threads Information  ******

  Command Line Threads Count                  :     1
  Available CPU Count                         :     4
  Actual Model Evaluation(Load) Threads Count :     1
  Actual Solver Threads Count                 :     1


  ******  Circuit Statistics  ******
  # nodes       =      22 # elements   =      12
  # resistors   =       0 # capacitors =       0 # inductors   =       0
  # mutual_inds =       0 # vccs       =       0 # vcvs        =       0
  # cccs        =       0 # ccvs       =       0 # volt_srcs   =       6
  # curr_srcs   =       0 # diodes     =       0 # bjts        =       0
  # jfets       =       0 # mosfets    =       6 # U elements  =       0
  # T elements  =       0 # W elements =       0 # B elements  =       0
  # S elements  =       0 # P elements =       0 # va device   =       0


  ******  Runtime Statistics (seconds)  ******

  analysis           time    # points   tot. iter  conv.iter
  op point           0.02           1           4
  transient          0.06       10001         479         190 rev=        22
  readin             0.07
  errchk             0.03
  setup              0.02
  output             0.00


           total memory used          458  kbytes
           total cpu time            0.24 seconds
           total elapsed time        0.32 seconds
           job started at     17:39:32 05/23/2020
           job ended   at     17:39:32 05/23/2020


  lic: Release hspice token(s) 
