$DATA1 SOURCE='HSPICE' VERSION='C-2009.09 32-BIT'
.TITLE '24t-tgff'
 tclk2q           temper           alter#            
  1.729e-08         70.0000           1.0000         
