$DATA1 SOURCE='HSPICE' VERSION='C-2009.09 32-BIT'
.TITLE '24t-csff'
 tclk2q           temper           alter#            
  1.083e-10          0.               1.0000         
