$DATA1 SOURCE='HSPICE' VERSION='C-2009.09 32-BIT'
.TITLE 'dynamic'
 p_avg            temper           alter#            
  1.234e-07         70.0000           3.0000         
