$DATA1 SOURCE='HSPICE' VERSION='C-2009.09 32-BIT'
.TITLE 'static'
 p_avg            temper           alter#            
  2.916e-08          0.               2.0000         
